256
Position of argon atoms in fcc cell after one integration
Ar           0.0516984           0.0400103             6.13639             3.90247             1.91734            -2.27321
Ar            0.777531            0.774804           0.0323435            0.252372            0.545289             1.37797
Ar           0.0473151            0.804505            0.803473             2.38881             1.37717             1.16628
Ar              0.8026              6.1617            0.764282             1.12678           -0.566426          -0.0630489
Ar           0.0369283             6.15615             1.53056             1.52674            -1.14092           -0.357841
Ar            0.788304            0.760191             1.57593            0.995562           -0.516553             1.15402
Ar             6.17504            0.808056             2.30697           -0.114943             1.27172           -0.342558
Ar            0.772895             6.14443             2.31587            0.119626            -1.40613             0.01129
Ar             6.13805             6.16153             3.09625            -2.17008            -1.12482            0.267337
Ar            0.779454            0.760027             3.09245             0.29846            -0.28869            0.102125
Ar             6.14682            0.799854             3.87766            -1.17928             1.10692            0.520048
Ar            0.770757             6.15008             3.88972            0.207673            -1.34277             1.06647
Ar              6.1523             6.13409              4.6196            -1.91644            -2.22499           -0.437612
Ar            0.757227            0.736689             4.64867           -0.604479            -1.48769            0.605369
Ar             6.15082            0.746075             5.41847           -0.720848           -0.895885            0.348771
Ar            0.748518           0.0419322               5.403            -1.13865             1.50267           0.0191462
Ar            0.026056             1.56004             6.13883             1.14363            0.680294            -2.11305
Ar            0.781572             2.30062           0.0448647               0.356           -0.615263             2.00275
Ar           0.0454609             2.31798            0.784607             2.27328           0.0217303            0.416456
Ar            0.780177             1.56576            0.759399             0.46168             0.68325           -0.317331
Ar             6.15959             1.53202             1.54255           -0.107795           -0.191362           0.0353759
Ar            0.745893             2.31382             1.56508            -1.10851          0.00152505            0.926512
Ar           0.0466429             2.32425             2.31047             2.01419            0.295406           -0.119009
Ar            0.787309              1.5615             2.33627            0.516951             0.60425            0.748845
Ar               6.163             1.52279             3.10081           -0.589899           -0.564602            0.408729
Ar            0.796586             2.29603             3.08458            0.792875           -0.660771          -0.0480203
Ar           0.0328737             2.34251             3.83663              1.2041            0.972464           -0.848225
Ar            0.795259             1.55711             3.86663            0.692864            0.428338            0.251341
Ar             6.14675             1.56624             4.66642            -1.83031            0.852683             1.18179
Ar            0.790805             2.31201             4.60601             0.56464          -0.0298024           -0.951675
Ar           0.0281733             2.31213             5.42736            0.971144          -0.0327358             0.58692
Ar            0.752621             1.51452             5.42623           -0.845457            -1.02245            0.831427
Ar             6.15543             3.11051           0.0486157            -2.08695            0.914363             2.32485
Ar            0.737215             3.84381             6.15642            -1.75252           -0.559309              -1.342
Ar           0.0270827              3.8347            0.763367            0.870518           -0.903719           -0.571459
Ar            0.770279             3.10819             0.80185           -0.191175            0.622115            0.956082
Ar           0.0364549             3.10443             1.54259             2.13214            0.646669            0.100046
Ar            0.766942             3.84928             1.56183           0.0257868           -0.287352            0.749887
Ar             6.16066             3.84421             2.32565            -1.01825            -0.61302            0.403141
Ar            0.758993              3.0713             2.29801           -0.462473           -0.565843           -0.489306
Ar           0.0309265             3.08038             3.10484             1.46095           -0.141939            0.507509
Ar            0.749445             3.83559              3.1091            -0.50381           -0.841623            0.753036
Ar              6.1573             3.87466             3.86127            -1.08505             0.44656           0.0288998
Ar            0.755824             3.08456             3.88977           -0.567291          -0.0679548             1.02641
Ar           0.0214557             3.11588              4.6334            0.943293            0.983333            0.147224
Ar            0.750828             3.87358             4.64675            -0.71719            0.535855            0.600994
Ar           0.0211244               3.846              5.3748             1.27581           -0.460896            -1.08077
Ar             0.74214             3.07358             5.41551           -0.925004           -0.602991            0.449885
Ar           0.0257958             4.61756           0.0206355             1.29294           -0.473434            0.723571
Ar            0.771485             5.42122             6.16696            0.369161            0.734948           -0.607662
Ar          0.00848917             5.37058            0.792991            0.735519            -1.52465             0.74242
Ar            0.755316             4.62504            0.796681           -0.511434           -0.243698            0.803199
Ar           0.0221035             4.63595             1.56272            0.982814            0.174085            0.740372
Ar             0.74679             5.40996             1.54354           -0.734713           -0.123495            0.159302
Ar            0.031829             5.38548             2.30877             1.62985           -0.910133           -0.142006
Ar            0.781087              4.6594             2.30443            0.478522            0.788086           -0.311882
Ar             6.14952             4.62442             3.07792            -1.03433           -0.334439           -0.337893
Ar            0.795542             5.41685             3.08816            0.785427            0.237042           0.0209555
Ar           0.0161041             5.42441             3.85383           0.0508274            0.298089            -0.20238
Ar            0.747711             4.62719               3.862            -1.05014           -0.158406           0.0629317
Ar             6.16186              4.6588              4.6542           -0.785396            0.991679            0.690455
Ar            0.750658              5.4101             4.61026            -1.19454         -0.00223835            -0.63647
Ar             6.17639             5.41999             5.42765            0.515996            0.477067            0.531204
Ar            0.761487             4.62499             5.37712           -0.782127           -0.304783           -0.870578
Ar             1.55713             6.16112           0.0286245            0.647609            -1.31356             1.61323
Ar             2.29699            0.763574             6.14573           -0.735354           -0.409707            -1.56863
Ar             1.56358            0.765184             0.74629              0.6993           -0.533611           -0.885667
Ar             2.29597              6.1523            0.746949            -0.63802           -0.790692           -0.866112
Ar             1.54244           0.0295079             1.56103            0.118459             1.13788            0.608046
Ar             2.31328            0.779522              1.5499           -0.119523            0.494296            0.263228
Ar             1.54945            0.802564             2.33926            0.343036             1.15012            0.804905
Ar             2.31565             6.15847             2.29892           0.0257876           -0.589837           -0.621763
Ar             1.53591             6.15929             3.09479          -0.0828683           -0.580821            0.179443
Ar             2.29601            0.758966             3.11055           -0.679505           -0.551039            0.791357
Ar             1.53058            0.786273             3.86302           -0.322198            0.472148            0.152531
Ar             2.31737             6.16845             3.89403          0.00907601            -0.61842             1.20166
Ar             1.53627             6.15972              4.6049           -0.126856           -0.433957           -0.933884
Ar             2.32779            0.755214             4.62856            0.432799           -0.859863          -0.0213256
Ar             1.52991            0.759283             5.42625           -0.334216           -0.620103            0.881411
Ar             2.33629           0.0507587             5.37891            0.853814             2.50719            -0.89263
Ar             1.55994             1.55276         0.000608416            0.634916            0.461874            0.319294
Ar              2.2938             2.33398             6.14634           -0.872255            0.645279            -1.52011
Ar             1.55308             2.32503            0.765869            0.367475            0.310859           -0.308834
Ar             2.33837             1.54649            0.730864            0.815799           0.0772279            -1.67078
Ar             1.56442             1.51999             1.53761            0.683723           -0.684733           -0.176521
Ar             2.31429             2.33625             1.56472          -0.0822813             0.78035            0.884755
Ar             1.53853              2.3442             2.29864          -0.0601278            0.945295           -0.626984
Ar             2.32081             1.57492              2.3397            0.159807             1.11276            0.889098
Ar             1.56613             1.56405             3.06623            0.802314            0.750983           -0.602327
Ar              2.3322             2.30667             3.09207            0.639456           -0.269044            0.185449
Ar              1.5714             2.31782              3.8758             1.03029           0.0512522            0.529215
Ar             2.33234             1.55931             3.88377            0.605467            0.578401            0.831057
Ar              1.5735             1.52547             4.62505            0.980805           -0.508952           -0.132815
Ar             2.32584             2.31211             4.61381            0.420454          -0.0750724           -0.568803
Ar             1.51949             2.33253             5.42704           -0.788323            0.553714            0.845087
Ar             2.32594             1.54119             5.39921            0.398513           -0.148269           -0.303191
Ar             1.55961              3.0824             6.16699            0.571721          -0.0131608           -0.643557
Ar             2.33641             3.87681           0.0356914             0.68578            0.533062             2.18385
Ar              1.5695             3.84162            0.730297            0.831322           -0.637128            -1.79213
Ar              2.3319             3.11482            0.745328            0.707308            0.770103           -0.830043
Ar             1.57215             3.07255             1.56392            0.936779            -0.35998            0.696265
Ar             2.34446             3.84935             1.53905             1.04341           -0.403055           -0.185823
Ar             1.57082             3.85853             2.31559            0.998496          -0.0725682           0.0264891
Ar             2.32033             3.07699             2.29676            0.343769           -0.426978           -0.561118
Ar             1.53231             3.09112             3.11516           -0.325561           0.0959726            0.849042
Ar             2.32819             3.89094             3.07467            0.425893             1.07808             -0.4818
Ar             1.56508             3.86117             3.87978            0.837615          -0.0263905             0.74121
Ar             2.33014             3.11675             3.85827            0.573483            0.896884          -0.0914517
Ar             1.54341             3.10295              4.6092           0.0364595            0.482438           -0.591126
Ar             2.30798             3.86962              4.6445           -0.284397            0.336452             0.48169
Ar             1.55434             3.84738             5.38716            0.385716           -0.472798           -0.647673
Ar             2.29946             3.11385             5.38403           -0.381436            0.701679           -0.721083
Ar              1.5507              4.6499          0.00494649            0.309777            0.652424            0.541779
Ar             2.29877             5.39223           0.0441577           -0.518923           -0.766991             2.36594
Ar             1.51781             5.42015             0.78161           -0.806133            0.323241            0.150758
Ar              2.3389             4.63053            0.763765            0.893632          -0.0928648           -0.172624
Ar             1.57429             4.62652             1.54803            0.995713           -0.213425            0.143863
Ar             2.30661             5.43407             1.55201           -0.295404            0.921057            0.249732
Ar             1.54213             5.42023              2.3033          -0.0283029            0.501819           -0.415711
Ar              2.2997             4.63793              2.3428           -0.490045            0.274537            0.935618
Ar              1.5728             4.64722             3.09879            0.946837            0.526065            0.408451
Ar             2.33222             5.38682             3.10614            0.639988           -0.836777            0.588973
Ar             1.55296             5.40066             3.89138            0.355474           -0.474352            0.997216
Ar             2.32339             4.62663             3.87755            0.278232           -0.178909            0.647407
Ar             1.55439             4.62942             4.60684            0.367247          -0.0640038             -0.7997
Ar             2.31789             5.37775              4.6446            0.218838           -0.975843            0.454025
Ar             1.57053             5.43728             5.44984            0.828675             1.02127             2.38725
Ar             2.30047             4.62709             5.43515           -0.329109           -0.282641             1.45014
Ar             3.09342             6.15671             6.13986            0.267511           -0.867342            -1.86728
Ar             3.83636            0.779216           0.0411974           -0.921929            0.211824             2.04381
Ar             3.09372            0.756555            0.742508            0.110158           -0.595661           -0.929248
Ar             3.86875             6.15811            0.806979            0.322511            -1.09125             1.36638
Ar             3.10959             6.16909             1.57602            0.819588            -1.35158             1.16537
Ar             3.84947            0.745593             1.53982            -0.36219            -1.32621         -0.00141042
Ar             3.11513            0.755676             2.31674            0.912672           -0.978538             0.10383
Ar             3.87988           0.0310487             2.29432            0.792103             1.57967           -0.617747
Ar             3.09189          0.00982761             3.06179            0.174751            0.347341           -0.801669
Ar             3.89061            0.755254             3.08739             1.09933           -0.245801           0.0483352
Ar             3.08759            0.765777              3.8611            0.115286           -0.363843         -0.00447873
Ar             3.83952           0.0393224             3.83936           -0.663079              1.7264            -0.66111
Ar             3.08767             6.16335             4.64779            0.136795           -0.276936            0.523188
Ar              3.8329            0.767123             4.66194            -1.00812           0.0780001             1.10397
Ar             3.07968            0.739323             5.38136           -0.176282            -1.44848           -0.750915
Ar             3.86332             6.17308             5.38422            0.222108           -0.102882           -0.874752
Ar             3.10978             1.54338             6.17868            0.714206            0.128977             1.01243
Ar             3.86611             2.31793             6.14094            0.162511           0.0863154            -2.01138
Ar             3.12283             2.34908            0.791819             1.23736             1.18971            0.791598
Ar             3.89409             1.53734            0.790302             1.25426            -0.11438            0.557547
Ar             3.10993             1.52075             1.55891            0.680845              -0.621            0.548506
Ar             3.85479             2.33922             1.55566           -0.165493            0.826068             0.49181
Ar             3.06635              2.3335             2.30122           -0.598204            0.585621           -0.493279
Ar             3.86846             1.51775             2.30336            0.395359           -0.864433           -0.425154
Ar             3.10965             1.57427             3.12104            0.825191             1.02867             1.15051
Ar             3.86702             2.32852              3.1123            0.212761            0.465258            0.834977
Ar             3.08152             2.31215             3.84949           -0.101222          -0.0889243           -0.298908
Ar             3.83964              1.5653              3.8549           -0.604921            0.619076          -0.0492623
Ar             3.11043              1.5459             4.63394            0.742617            0.177327            0.134703
Ar             3.86933             2.30894             4.64173            0.295569           -0.180178            0.378012
Ar             3.11802             2.34436             5.40282            0.889125             1.03351            -0.24063
Ar             3.85711             1.52299             5.38368            0.017434           -0.661044            -0.77104
Ar             3.08067             3.09535             6.17131           -0.168446            0.253533            0.495144
Ar             3.88809             3.88439           0.0266872            0.938112            0.794614             1.55543
Ar             3.07262             3.87163            0.795023           -0.300705            0.339757            0.760316
Ar             3.84475             3.07332            0.787973            -0.47381           -0.377091            0.318474
Ar             3.06574             3.08428             1.53421           -0.666335          -0.0808295           -0.209905
Ar             3.86946                3.84             1.52984            0.277121           -0.665978           -0.380669
Ar             3.11601             3.87355             2.31159             0.97104            0.446192           -0.126439
Ar             3.86658             3.08934             2.33151            0.229424           0.0233776            0.538366
Ar             3.08189             3.09206              3.0964           -0.142352            0.205112             0.26858
Ar             3.84011             3.84193             3.12023           -0.732165           -0.627378             1.22948
Ar             3.10603             3.84663             3.85662            0.608585             -0.4573          -0.0784827
Ar              3.8626              3.0912              3.8516            0.168567          0.00959213            -0.22918
Ar             3.11369             3.07022             4.65816             0.79581           -0.489579            0.785035
Ar             3.89338             3.87456             4.65821             1.15717            0.440855            0.831779
Ar             3.07456             3.88375             5.39327           -0.352719             0.81571           -0.505772
Ar             3.87584             3.10305             5.42965             0.65132             0.45346            0.546604
Ar             3.06783             4.62822          0.00531573           -0.506511           -0.015458            0.283351
Ar              3.8696             5.42146           0.0174483            0.376266            0.063749            0.646236
Ar             3.09225              5.3796            0.756011            0.206724           -0.960071           -0.576401
Ar              3.8651             4.66489            0.761491            0.263697             1.03486           -0.292316
Ar             3.11706             4.60948             1.53774             0.90475           -0.629826          -0.0929145
Ar             3.86224             5.40846             1.53251            0.187195            0.114881           -0.309784
Ar             3.07496             5.38934              2.3355           -0.304781           -0.473042            0.624728
Ar              3.8426             4.65393             2.32841           -0.503927            0.592683            0.508907
Ar             3.09875             4.62384              3.0791            0.363505           -0.320162           -0.187237
Ar             3.87203             5.41524             3.08641            0.477659            0.582585          -0.0294787
Ar             3.09879             5.43658             3.87383            0.375756             1.15645             0.40512
Ar             3.84438             4.63493             3.84407           -0.464332           0.0396358           -0.474064
Ar             3.08839             4.66007             4.64631            0.117396            0.947549            0.481327
Ar             3.86656             5.37697             4.62981            0.272742            -1.04634           -0.152359
Ar             3.07379              5.3808             5.40123           -0.451001           -0.838053            0.118178
Ar             3.83707             4.62297             5.42272           -0.654938            -0.34617             1.00986
Ar             4.62863           0.0326274             6.16818          -0.0330367             1.32772           -0.647446
Ar             5.42605            0.758073             6.15793            0.838391           -0.498902            -1.48608
Ar             4.64591            0.760481             0.76425            0.474026           -0.299478           -0.725713
Ar             5.42945           0.0118497            0.729199             1.03292            0.690059            -2.16663
Ar             4.61907             6.17474             1.52976           -0.287856            0.208413           -0.373168
Ar              5.3876            0.733952             1.56714           -0.648089            -1.74196            0.929258
Ar             4.64501            0.791621             2.30869            0.498263             0.64173           -0.170146
Ar             5.40517          0.00427375             2.29742          -0.0595575            0.403902           -0.551933
Ar             4.63148             6.16515             3.07118            0.128955            0.137142           -0.569281
Ar             5.37858            0.768497             3.07624            -1.06484           -0.269477           -0.316247
Ar              4.6315            0.757111             3.86298            0.081477          -0.0988799            0.156578
Ar             5.38252             6.17091             3.83712           -0.794568           0.0320085           -0.719433
Ar             4.66522             6.15907             4.63212             1.09144            -1.31212           0.0200486
Ar             5.37709            0.756089              4.6107            -1.05633            -1.18571           -0.627454
Ar             4.63419            0.744327             5.39983           0.0728239            -1.36927           -0.401815
Ar             5.42953          0.00471644             5.42538            0.913121           0.0572976            0.155962
Ar             4.61868             1.53096          0.00548593           -0.409881           -0.348169          -0.0263923
Ar             5.40941             2.30314           0.0118508             0.29668           -0.482748             0.56274
Ar             4.64746             2.28761             0.76118            0.443204           -0.946061           -0.379916
Ar             5.43522             1.53485            0.732697             1.43721           -0.370548             -1.7274
Ar             4.60884             1.55105             1.52808           -0.648268            0.278799           -0.449931
Ar             5.41785             2.29313             1.57463             0.44555           -0.766348             1.08208
Ar             4.64247             2.30585             2.30856            0.310003           -0.363041           -0.206317
Ar             5.43395             1.57103             2.32634            0.908059            0.831836            0.383054
Ar             4.63335             1.52307             3.09041           0.0356739           -0.497136            0.100676
Ar             5.40078              2.3172             3.09698          -0.0711747           0.0828441            0.316287
Ar             4.66478             2.29833               3.854             1.01652           -0.585898           -0.148735
Ar             5.42841             1.52634             3.83748            0.546088           -0.448554           -0.708495
Ar             4.63562             1.54244             4.64101            0.147349             0.02304            0.217493
Ar             5.40819              2.3249             4.64192           0.0648331            0.336785            0.293918
Ar             4.63483             2.31656             5.40948           0.0844982           0.0550845           0.0820337
Ar             5.40649              1.5421             5.39564             0.16444           -0.125251           -0.116053
Ar             4.64722             3.07749          0.00336563            0.545568           -0.280201           -0.294369
Ar             5.42974             3.85188           0.0192645             1.05251           -0.290724             1.07695
Ar             4.65881             3.88043            0.753834            0.878995            0.699103           -0.574363
Ar             5.44241             3.09516            0.773072             1.69076            0.135732            0.184967
Ar             4.65818             3.06927             1.54488            0.771489           -0.576245          0.00166359
Ar             5.44318             3.85247             1.52414             1.83281           -0.205136           -0.677521
Ar             4.62409             3.88029             2.30579           -0.206877            0.697385           -0.344355
Ar              5.4408             3.07816             2.34501             1.52077            -0.33457            0.890336
Ar             4.62463             3.08027             3.11201           -0.235231           -0.216164            0.719235
Ar             5.43163             3.88684             3.07298            0.594695            0.837632           -0.516844
Ar             4.64232             3.87134             3.87054            0.440005            0.328233            0.359233
Ar              5.4004             3.11569             3.87426           0.0141704            0.832009            0.459738
Ar             4.60607             3.07356             4.63908           -0.835877           -0.480475            0.137697
Ar             5.41226             3.86657             4.63881            0.456087             0.22457            0.219808
Ar             4.64121             3.89031               5.412            0.329365              1.0099            0.314799
Ar             5.39092             3.08882              5.3966           -0.242113          -0.0504102            0.104744
Ar             4.63442             4.65702           0.0234733            0.161612            0.897659             1.08802
Ar             5.37878             5.44032          0.00125936            -1.09403             2.05535            0.161961
Ar             4.61351             5.40965            0.754943           -0.557998             0.16576           -0.659275
Ar             5.40121             4.61612            0.792514            0.210643           -0.503192            0.642344
Ar             4.62261             4.65838             1.54865           -0.316221            0.830927            0.199509
Ar             5.42846             5.39427             1.56011             1.44339           -0.229012            0.533008
Ar              4.6511             5.42205             2.31885            0.552137            0.735891            0.124887
Ar              5.3845             4.62526             2.32969             -0.6992           -0.256434            0.432417
Ar             4.63782             4.65473             3.06525            0.155286            0.698967           -0.622621
Ar             5.41625              5.4214             3.08057            0.478632            0.473575           -0.257461
Ar             4.62908             5.38738             3.86486           -0.141908           -0.770289            0.127362
Ar              5.4119             4.63971             3.84236            0.138897            0.256247           -0.513363
Ar             4.65964             4.60909             4.63444            0.869215           -0.631445          0.00539028
Ar             5.43334             5.37731             4.63823             0.81498           -0.963227            0.135887
Ar             4.65069             5.43011             5.45263             0.49545             1.19325             2.46087
Ar             5.40659             4.62645             5.44277            0.227788           -0.283723             1.89018
