256
Position of argon atoms in fcc cell after one integration
Ar            0.392421            0.144804             5.85929             36.2409             5.09365            -47.9586
Ar            0.793695             0.81433             6.16803              1.5805             3.04163            -11.0588
Ar            0.158837            0.856731            0.843725             4.70447             2.13152             1.48901
Ar            0.846653             6.13803            0.770202             1.92792            -1.35347            0.497227
Ar           0.0862926             6.11675             1.52277              1.8167            -1.41089           -0.154905
Ar             0.83507            0.740996             1.61695             2.17327           -0.772014             1.56972
Ar             6.17195            0.849788             2.29348            -0.57099             1.50873           -0.591733
Ar            0.779603             6.08951             2.31758             0.31372            -2.29906            0.100503
Ar             6.03896              6.0996             3.10657            -4.32708            -4.01912            0.461655
Ar             0.79294            0.757758             3.09392            0.596708            0.155975          -0.0378531
Ar             6.10694            0.839607             3.89085            -1.49585             1.58458            0.280553
Ar            0.793082             6.08541             3.93186             1.58176            -3.03402             1.84086
Ar             6.02411             6.03077             4.60488            -6.82626            -5.62478           -0.536495
Ar            0.739034             0.67867             4.67826           -0.501194            -2.46315             1.67744
Ar           0.0309287            0.732553             5.41652             6.43892             1.39018            -1.29428
Ar            0.742344           0.0689501             5.33242             17.2152            -2.85475            -28.3836
Ar           0.0784492             1.59144               6.031             2.88827             1.54906            -5.73142
Ar            0.789682             2.27404            0.103417            0.125465            -1.26641             1.65953
Ar            0.129506             2.31712            0.808306             2.97542           -0.122677              1.4241
Ar            0.802878             1.58171            0.755659             1.17845            0.247551            0.250758
Ar           0.0104639             1.53862             1.54772             1.61297            0.745782            0.333468
Ar            0.694174             2.32134             1.61542             -2.5425            0.648255             2.88262
Ar            0.114065             2.33895             2.31793             2.15446             0.78774            0.974822
Ar            0.806386             1.58088             2.36576            0.740183            0.655629             1.25037
Ar             6.13957             1.51166             3.11409            -1.02742           -0.139073            0.448074
Ar            0.824388             2.27669             3.08994             1.08666           -0.599773            0.481069
Ar           0.0648839             2.38293             3.80738            0.853736             1.82891            -1.12949
Ar            0.816779             1.56981             3.87889            0.768916            0.394967            0.587177
Ar             6.04853             1.59862             4.71079            -4.96459             1.33453             1.91522
Ar              0.8117             2.31849             4.57462            0.886986            0.528495            -1.13929
Ar           0.0423453             2.32264              5.4426            -0.25869             1.00546            0.264989
Ar            0.731258             1.48178             5.44875           0.0689443             -1.1247            0.480909
Ar             5.94124             3.16149            0.167806             -18.326             3.46681             8.07395
Ar            0.654401             3.82977              6.0772            -3.76103           -0.307553            -4.97417
Ar         0.000978769             3.81179            0.737304            -4.83018           -0.251079           -0.812717
Ar            0.761778             3.12763            0.835437           -0.355783            0.688366             1.42736
Ar            0.129934             3.13561             1.55925              4.0693              1.6271             1.27261
Ar            0.773373             3.84875              1.5916            0.433308            0.405232             1.20336
Ar             6.12075             3.82175             2.34379            -1.61597           -0.946053             0.82701
Ar            0.752671             3.05927             2.29338            0.305843          -0.0791984            0.381596
Ar           0.0831178             3.08669             3.11848              1.8785            0.713056            0.343339
Ar            0.743601             3.81161              3.1357            0.165299           -0.672943            0.985421
Ar             6.10985             3.88955             3.86286            -2.13341            0.535982           0.0609014
Ar            0.741365             3.09039             3.92747           -0.313377            0.571907             1.50415
Ar            0.050867              3.1544             4.65054            0.942953             1.68979             1.15671
Ar            0.724624             3.89887              4.6786            -1.17846              1.2131             1.74652
Ar           0.0694402              3.8354             5.34827             1.47349           -0.158178           -0.570583
Ar            0.725813             3.05081             5.42565           0.0304237           -0.942203            0.112333
Ar           0.0695818             4.60822           0.0213615             1.56409          -0.0333856            -1.33513
Ar            0.792531             5.46596             6.13885               1.118             2.97469            -1.52145
Ar           0.0506275             5.31255            0.826879             2.28795            -2.30383             1.62118
Ar            0.742942             4.61789            0.831438           -0.251621           -0.307546             1.60418
Ar           0.0644086             4.64731             1.59521             1.99985            0.651692             1.54023
Ar            0.731942             5.39859             1.55936           -0.123217           -0.679967             1.01474
Ar           0.0945604             5.35221              2.3132             2.43981            -1.32104            0.561512
Ar            0.806616              4.6786             2.30002             1.31494            0.375469           0.0706489
Ar             6.11273             4.60969              3.0687             -1.5007           -0.714953           -0.264452
Ar            0.829106              5.4218             3.09142             1.54537           0.0913815             0.20846
Ar             6.15726             5.41915             3.84872            -2.36133           -0.787014           -0.175789
Ar            0.702561             4.62546             3.86558            -2.17366           0.0581503            0.166459
Ar              6.0985             4.70181             4.67676            -4.26095             2.11259            0.773883
Ar            0.679709             5.39954             4.60137            -4.30537           -0.818819            0.228416
Ar           0.0149625             5.43715             5.43979            0.154976             0.77831            0.386773
Ar            0.719769             4.61996             5.36252            -1.93633           0.0992634            0.141559
Ar             1.59364             6.07956            0.127627              2.1965            -4.61863             6.27696
Ar             2.26789            0.737524             6.07266            -1.27341            -1.53821             -3.4899
Ar              1.5877            0.733119             0.71023            0.880887            -1.76909            -1.50735
Ar             2.28384             6.13659            0.720206            0.188473           -0.131789            -0.70999
Ar             1.55642           0.0771256             1.58262            0.931834             2.14386            0.828097
Ar             2.30717            0.803442             1.55992           -0.332427              1.0951            0.376087
Ar             1.56699            0.842519             2.36781            0.843323             1.47443             1.11077
Ar             2.31944             6.14961             2.27568            0.242816            0.133791           -0.965498
Ar             1.54087              6.1436             3.09888              0.4347           -0.486332           0.0630196
Ar               2.275            0.736491             3.13887           -0.695675            -1.02554             1.08152
Ar             1.52382            0.803604             3.87325           -0.143789            0.722313            0.553655
Ar             2.31552             6.13274              3.9385           -0.179063            -1.91997             1.77833
Ar             1.53623             6.15592             4.57869             0.12746            0.286126           -0.711523
Ar             2.34515            0.707507             4.64298            0.765943            -2.74651             1.48294
Ar               1.523            0.739625             5.45082           -0.203175            -0.59021            0.697157
Ar             2.38666            0.166815              5.3534             3.40339              5.5603            -0.63519
Ar             1.58555             1.57377           0.0247229              1.1159             0.93188             1.60477
Ar             2.25903             2.35994              6.1066            -1.52349             1.13778           -0.931092
Ar             1.56761              2.3373            0.759944            0.597536            0.511963           -0.124355
Ar             2.36999              1.5479            0.669501              1.3826          -0.0128224            -2.34814
Ar             1.58364             1.50518              1.5303            0.505303           -0.245139            -0.33615
Ar             2.31025             2.37045             1.60454           -0.224877             1.62365              1.8895
Ar             1.54142             2.37762              2.2757            0.237639             1.31341           -0.933346
Ar             2.32422             1.61506             2.37565          0.00665979             1.57279             1.57008
Ar             1.59317             1.59102             3.05707            0.958842             1.02917             0.09425
Ar             2.35904             2.30224             3.10337             1.17106           0.0254363            0.623556
Ar             1.60953              2.3202               3.895             1.51339           0.0933077            0.748592
Ar             2.35408             1.58147             3.91541            0.822267            0.906639              1.3091
Ar             1.60258             1.51357             4.62761            0.905435           -0.276964            0.350746
Ar             2.34534              2.3142             4.60174            0.907169            0.255589           -0.159237
Ar             1.49434             2.35149             5.46544           -0.915916            0.722926             1.70286
Ar             2.33982             1.53615             5.39061            0.488599           -0.163091           -0.252475
Ar             1.57615             3.09452             6.12531            0.440708            0.963747            -2.35486
Ar             2.35659             3.89473            0.130784            0.463673            0.618902             4.18256
Ar             1.58813             3.82359            0.659572            0.111512           -0.519947            -2.93412
Ar             2.36482             3.13169            0.725831             1.53276            0.201116            -0.56722
Ar             1.60072             3.07343             1.58447            0.901384            0.551598            0.580902
Ar             2.38515               3.835              1.5302             1.73547           -0.589964           -0.467734
Ar             1.60572             3.85842             2.31924             1.30072           0.0852932            0.224827
Ar             2.34353             3.06408             2.28617             1.28854           -0.370045          -0.0388051
Ar             1.52525             3.09455             3.14012           -0.130781             0.11081            0.771843
Ar             2.34352             3.93144             3.05767            0.595178              1.6708           -0.687152
Ar             1.59637             3.85952             3.91107             1.23259           -0.101326             1.38938
Ar             2.35417               3.144             3.85479             1.05264            0.886335           -0.171498
Ar             1.54772             3.11822             4.60254             0.26624            0.506182            0.231214
Ar             2.29846             3.88215             4.66835           -0.358691            0.462732             1.18941
Ar             1.56818              3.8315              5.3691            0.503144           -0.580946           -0.481933
Ar             2.29586             3.12974             5.35905            0.196338            0.277761           -0.916403
Ar             1.56568             4.67723           0.0617555            0.746456             1.30072             3.75996
Ar              2.2883             5.34965            0.148375          -0.0537432             -2.2791             4.74233
Ar             1.49609             5.41645            0.785493             -0.6142           -0.883293            0.342122
Ar             2.37579              4.6277            0.764457             1.63421           -0.142949             0.43151
Ar             1.60497             4.62127             1.55265             1.01469            -0.13466            0.145899
Ar             2.29804             5.46332              1.5574           -0.262997            0.968982           0.0437666
Ar             1.54386              5.4367             2.29114            0.187379            0.530171           -0.391654
Ar             2.28601             4.65588              2.3752           -0.433121             1.00908             1.20288
Ar             1.60021             4.66784             3.11679            0.819447            0.858846            0.826485
Ar             2.35809             5.36041              3.1255             1.10087           -0.808514             0.69162
Ar             1.56715             5.37283              3.9232            0.603624            -1.45778             1.14105
Ar             2.33292             4.62421             3.90393            0.328972           0.0334495              1.1263
Ar             1.56391             4.63043             4.58929            0.191724            0.115363           -0.253741
Ar             2.33427             5.34275              4.6643            0.939973            -1.39002            0.876356
Ar             1.59501             5.45817             5.59351            0.867315           0.0970135             8.91089
Ar             2.29927             4.61751             5.49285            0.290867           -0.341834             2.12564
Ar             3.10555             6.12211             6.06563            0.532188            -1.61539            -3.03559
Ar             3.79816             0.78234            0.105194            -1.80452          -0.0441926              2.2706
Ar             3.08731            0.734474            0.719339           -0.772357           -0.923376           -0.334776
Ar             3.88389             6.08731            0.862321            0.742852             -4.0884             2.41307
Ar             3.14315             6.06537             1.61688             1.49056             -5.7109              1.5423
Ar             3.83961            0.669219             1.55169           -0.269073            -3.96309              1.0067
Ar             3.14564            0.704636             2.32641             1.11089            -2.45276            0.616791
Ar             3.91705            0.070749             2.28507             1.79452            0.633442            0.198821
Ar              3.0996           0.0259349             3.04313            0.316504            0.731746           -0.335671
Ar             3.93162            0.760649             3.09574             1.63343            0.371965            0.555628
Ar             3.09963            0.746926             3.86068            0.748497           -0.925661          -0.0329831
Ar             3.82392           0.0866964             3.82399           -0.286353              1.1565           -0.299156
Ar             3.10158             6.15547             4.66683            0.857512            -0.53869             0.76691
Ar             3.79529            0.784438              4.7097            -1.59285              1.3299             2.24492
Ar             3.09048            0.669165             5.36608             1.60914            -3.49102          -0.0676435
Ar             3.87984             6.17731             5.35543             1.00237            0.433546            -0.91642
Ar             3.13246             1.55334           0.0448707            0.810056            0.549461              1.9261
Ar             3.87184              2.3242              6.0775             0.21486            0.361927            -1.96792
Ar             3.17014             2.39774            0.829077             2.03216             2.22264             1.71937
Ar              3.9443             1.53955            0.816392             2.19415            0.289807             1.34982
Ar             3.13082             1.50761             1.57618             0.70264           -0.265014            0.588894
Ar             3.85236             2.36875             1.57592           0.0285069             1.12978            0.884006
Ar              3.0565             2.35303             2.28681           0.0405935            0.677932           -0.441274
Ar             3.88875             1.49138             2.29006            0.984606           -0.891704           -0.471298
Ar              3.1446             1.60963              3.1647             1.57395             1.36062             1.85626
Ar             3.87508             2.34753             3.14216            0.328653            0.838637             1.15945
Ar             3.08531             2.31498             3.84674             0.38425            0.357361            0.201587
Ar             3.82725             1.58027              3.8641           -0.138967            0.328223            0.769185
Ar             3.13464             1.55615             4.64301            0.832866            0.514536            0.504199
Ar             3.88001             2.30757             4.65916            0.407462            0.123509            0.802356
Ar             3.13969             2.38346             5.38259            0.454383             1.61372            -1.34787
Ar             3.86318              1.5065             5.36485            0.390716           -0.337382            -0.45804
Ar             3.08028             3.10342           0.0175481            0.179192            0.248738            0.445007
Ar             3.92145             3.91242           0.0917713             1.30149              1.0876             2.66664
Ar             3.07831              3.8833            0.821137             0.84567            0.430338             1.01722
Ar             3.83654             3.07301            0.795852            0.078036            0.525069            0.258388
Ar             3.05182               3.086             1.53196           -0.173005            0.230625           0.0717605
Ar             3.87804             3.82136             1.52308            0.279569           -0.548589          -0.0278462
Ar             3.14865             3.89124             2.30914             1.16861            0.755602          -0.0402028
Ar             3.87511             3.09134             2.35029            0.318631            0.113454            0.700808
Ar             3.08274             3.10417             3.10539            0.241899            0.634054             0.31392
Ar             3.81376             3.82279             3.17129            -1.08025           -0.636878              2.2767
Ar              3.1241             3.83536             3.86019            0.495818           -0.249091            0.408955
Ar             3.87385             3.08794              3.8503             0.60116           -0.260972            0.208047
Ar             3.13686             3.06322             4.67724             0.70943            0.121625            0.339806
Ar             3.93496             3.88776             4.68587             1.61629            0.401468            0.997754
Ar             3.07017             3.91242             5.36699            0.106653             1.07737            -1.32517
Ar              3.9027             3.11974             5.44062             1.12704            0.688127            0.243587
Ar             3.06357              4.6357           0.0116038            0.337301            0.546026            0.199291
Ar             3.88884             5.41109           0.0498207              1.0429           -0.713853             2.27193
Ar             3.10562             5.34964            0.745515              0.7619           -0.975915           0.0192241
Ar             3.88165             4.69714            0.758153            0.921028             1.07263             0.13835
Ar              3.1441             4.59959             1.54035            0.871366           0.0368225            0.289582
Ar             3.87646             5.40031             1.52919            0.854576           -0.939289            0.230425
Ar             3.07374             5.37206             2.35506            0.262496           -0.757694            0.694243
Ar             3.83183             4.67004             2.35058           -0.184337             0.45785            0.987321
Ar             3.11195             4.61475             3.08139            0.514352           -0.268178            0.397452
Ar             3.89187             5.43655             3.08769            0.829724             0.55713            0.111761
Ar             3.11323             5.47553             3.88523            0.591516             1.38329             0.31754
Ar             3.83404             4.63874             3.83481           -0.196915            0.256449          -0.0933312
Ar             3.10037             4.69357             4.66516            0.754879             1.29171            0.789226
Ar             3.88027             5.34211             4.62388             0.68581            -1.19478           -0.250575
Ar             3.06347             5.35304             5.41302           -0.195451            -1.01479            0.699638
Ar              3.8229             4.61397             5.47864            -0.23814           -0.234936             2.93449
Ar             4.63452            0.128278             6.10405             0.55219             7.58683            -5.00268
Ar              5.4459            0.741872             6.07722            0.774147           -0.296631            -4.41951
Ar             4.66357            0.755056            0.720229            0.701446          -0.0563281            -2.42426
Ar             5.45349           0.0838581            0.621187            0.289432             7.22577            -5.96686
Ar             4.62375             6.17395             1.52292            0.780719           -0.666592           -0.042218
Ar             5.36085            0.657215             1.60795            -1.18679            -3.95625             2.02864
Ar             4.66561            0.812399             2.31012            0.873353            0.718185            0.355917
Ar             5.39548           0.0276716             2.28845           -0.669362            0.801018            0.209347
Ar             4.64538           0.0108491             3.05452            0.857149             1.56034           -0.505281
Ar             5.34351            0.753771             3.07307            -1.17102           -0.601243            0.178379
Ar             4.64166            0.769534             3.87377            0.636414            0.782041            0.600316
Ar             5.35517          0.00193197             3.82139            -1.10829            0.100401            -0.19395
Ar             4.70114             6.07382             4.63506             1.30816            -4.53771            0.144554
Ar             5.34508            0.682139             4.60027            -1.02712            -3.98862           0.0722521
Ar             4.63832             0.68252             5.37795            0.187023            -2.70635            -1.29297
Ar             5.46728           0.0013984             5.40342             1.85291             0.10679            -1.80209
Ar             4.60975             1.52322             6.17887           -0.175493           -0.161935           -0.258546
Ar             5.41892             2.28421           0.0382375            0.206952           -0.889549              1.2886
Ar             4.65963             2.26016            0.756645            0.346504           -0.823628            0.139892
Ar             5.49217             1.51916            0.668866             2.17701           -0.741381            -2.31599
Ar             4.59931             1.55936             1.52097            0.127438            0.233879            0.106134
Ar             5.42296             2.26835             1.61327          -0.0873753           -0.910929             1.52638
Ar             4.65188             2.29463             2.30524            0.280971           -0.378005           0.0125481
Ar             5.45831             1.59377             2.34214            0.706157            0.623243            0.688683
Ar             4.63617             1.51754             3.09624            0.160257             0.17116            0.297877
Ar             5.39408             2.32297             3.10968           -0.481072            0.309911            0.541816
Ar              4.6946             2.28106             3.85482            0.917259           -0.564038            0.250338
Ar             5.43058             1.52161             3.82084           -0.574469            0.212499           -0.339315
Ar               4.644             1.54495             4.64716            0.420884            0.114171            0.192317
Ar             5.40026             2.34035             4.65254           -0.755272            0.781386            0.408987
Ar             4.64164             2.32125             5.41095            0.409706            0.270141           0.0572637
Ar             5.41281             1.53684             5.40044            0.160383           -0.217884            0.559495
Ar             4.66751             3.07211             6.16902            0.796044          -0.0829741           -0.354074
Ar             5.46969             3.85423           0.0668523             1.54262             1.42099             1.93904
Ar             4.68889             3.90783            0.736919             1.13218             1.16629           -0.508323
Ar             5.49861             3.09385            0.809567            0.512766           -0.527464             4.93354
Ar             4.68036             3.05439             1.54392            0.667637           -0.402188          -0.0635293
Ar             5.52855             3.85093             1.50106             4.23024            0.146003           -0.845888
Ar             4.62221             3.90658              2.2954            0.110483             1.06382           -0.343897
Ar             5.49522             3.06717              2.3689             1.96032           -0.474293            0.640195
Ar             4.62208             3.07721             3.13113            0.105693           0.0326374             0.50325
Ar             5.43229             3.91112             3.05755           -0.756746            0.710634           -0.490463
Ar             4.66197             3.88227             3.88441            0.860747            0.393206            0.559826
Ar             5.40035             3.13859             3.88971           -0.126267            0.629906            0.550545
Ar             4.58535             3.06004             4.64172            -0.48263           -0.397739           0.0271544
Ar             5.43473             3.87591             4.64888             1.01755            0.381873            0.467344
Ar             4.65685             3.92457             5.42079            0.741166             1.25445            0.210135
Ar             5.38497             3.08757             5.40455           -0.223858         -0.00437881            0.238667
Ar             4.64707             4.69287           0.0785582            0.729242             1.57453             2.95268
Ar             5.32246             5.59218           0.0447176            -3.18439             11.6251             5.02017
Ar             4.60466             5.41464            0.740776           0.0958633            0.109127           -0.052589
Ar              5.4167             4.60765             0.81064            0.823081           0.0255278            0.533559
Ar             4.61593             4.68248             1.55661          -0.0984008            0.701482            0.314524
Ar             5.50719             5.38992              1.5757             4.21196           -0.117747            0.481688
Ar             4.66749             5.45745             2.32403            0.527275             2.08427            0.193883
Ar             5.35677             4.62171             2.34203             -1.2161           0.0993266            0.356034
Ar             4.64183             4.67585             3.05514            0.073378            0.661774           0.0237763
Ar              5.4274             5.42846             3.07222           -0.196583           -0.169712           -0.329638
Ar             4.62683             5.35655             3.86862           0.0562764            -1.28712            0.102711
Ar             5.41345             4.65097             3.83269           -0.117808            0.479305          -0.0857687
Ar             4.68635             4.59937             4.63395            0.882026           0.0561427          -0.0391982
Ar             5.44977             5.34686             4.64145           -0.443492            -1.23072           0.0868226
Ar             4.65669             5.50741             5.63034           -0.429141             5.56979             13.4256
Ar              5.4197             4.61929             5.52536            0.649244            -0.11361             3.64334
