256
Position of argon atoms in fcc cell after one integration
Ar          0.00540234          0.00893822             6.17024             1.00079             1.16165            -1.15142
Ar            0.773332            0.770218          0.00715187            0.142555          -0.0764498            0.929087
Ar           0.0105424            0.780768            0.781559             1.27563              0.9448            0.970481
Ar            0.781628             6.17313            0.768609             0.96186           -0.573967           -0.336819
Ar          0.00896535             6.17478             1.53927             1.13146           -0.612344           -0.501928
Ar            0.774551            0.769176              1.5544             0.36299           -0.361766            0.975635
Ar             6.17788            0.783287             2.31364           -0.144757             1.15214           -0.332465
Ar            0.771931             6.16924             2.31634          -0.0206924            -1.05427          -0.0610684
Ar             6.17093             6.17678             3.09143            -1.07948           -0.382509            0.203167
Ar             0.77445            0.767732             3.09034            0.212039           -0.442023           0.0915679
Ar             6.16941            0.779837               3.867            -1.02381            0.835041            0.511662
Ar             0.77089             6.17117             3.87038           -0.147147           -0.822879            0.858083
Ar             6.17605             6.16901             4.62897           -0.548509            -1.21329           -0.500691
Ar            0.767893            0.762352             4.63847           -0.454632            -1.06154             0.42576
Ar             6.16937            0.763787             5.41046           -0.970651           -0.814044            0.393841
Ar            0.766334           0.0115756             5.40486           -0.661566             1.33043           -0.177387
Ar          0.00681833             1.54883             6.17017            0.762836            0.441582            -1.05884
Ar            0.774754              2.3119           0.0104525            0.281452           -0.520759             1.27777
Ar          0.00914589             2.31742            0.776828             1.22861           0.0274668            0.398496
Ar            0.773487             1.55158            0.767527             0.18982            0.686827           -0.463787
Ar             6.17009             1.53927             1.54329           -0.813222            -0.49151           -0.108253
Ar            0.764891             2.31544             1.55032           -0.793461           -0.145551            0.582746
Ar           0.0117827             2.31924             2.31443             1.36512            0.211927           -0.249219
Ar            0.777423             1.54992             2.32286            0.477443            0.528567            0.585444
Ar             6.17397             1.53647               3.093           -0.509969           -0.772357            0.355206
Ar            0.780766             2.30985             3.08727            0.791163           -0.703024           -0.200359
Ar          0.00904903             2.32498             3.85346             1.04342            0.784597           -0.824006
Ar            0.780522             1.54861             3.86294            0.768252             0.39606            0.120379
Ar             6.17203             1.55099             4.64428            -0.80099            0.653902              1.0086
Ar            0.779083             2.31469             4.62494             0.61753           -0.215092           -0.921165
Ar          0.00761006             2.31482             5.41456            0.908703           -0.205988            0.701277
Ar            0.767378             1.53489             5.41147           -0.576921            -0.98195            0.566251
Ar              6.1771             3.09535           0.0118875            -0.37165            0.615033             1.35617
Ar            0.763763             3.85575             6.17595           -0.955623           -0.605599           -0.561109
Ar          0.00785333             3.85293            0.770966            0.869295           -0.887653           -0.204839
Ar            0.772495             3.09568            0.782312          -0.0278801            0.605828             0.97398
Ar          0.00570144              3.0937              1.5432            0.880327            0.435947           -0.125818
Ar            0.769095             3.85703              1.5493           -0.247334           -0.456926             0.49392
Ar             6.17627             3.85613             2.31928           -0.470594           -0.572402            0.235796
Ar             0.76839             3.08336             2.31007           -0.426685           -0.606745           -0.671513
Ar          0.00681444             3.08569             3.09447            0.863177           -0.352162             0.49782
Ar            0.763143             3.85297             3.09538           -0.832732            -0.86989            0.600752
Ar             6.17425             3.86601             3.86133           -0.594099            0.405674          -0.0406584
Ar            0.767256             3.08748              3.8706           -0.533778           -0.193896            0.874217
Ar          0.00492152              3.0977              4.6332            0.622735            0.824236          -0.0886887
Ar            0.765164             3.86502             4.63745            -0.70372            0.330191            0.343854
Ar          0.00287262             3.85623             5.39686            0.492998           -0.542786            -1.03528
Ar            0.762304             3.08466             5.40805            -1.00662           -0.498116            0.227653
Ar           0.0043948             4.62827          0.00551704            0.719185           -0.573825            0.652265
Ar            0.769674                5.41             6.17702           -0.140159            0.393841            -0.33361
Ar        9.75471e-005             5.39672            0.779493           0.0828723            -1.06655            0.642322
Ar            0.766599             4.63083            0.781252           -0.596781           -0.327329            0.792764
Ar          0.00577136             4.63414             1.54996            0.620754            0.012459            0.538672
Ar            0.763537             5.40949             1.54322            -0.89662            0.178644           -0.105445
Ar          0.00613442             5.40124             2.31367            0.852666           -0.612805           -0.317904
Ar            0.774255             4.64272             2.31231            0.221854            0.830547           -0.452417
Ar             6.16973             4.63084             3.08535           -0.956104           -0.323882           -0.395967
Ar            0.780612              5.4108             3.08866            0.747528            0.362302          -0.0682184
Ar          0.00662253             5.41421             3.85881             0.67796            0.669602           -0.288194
Ar            0.765515             4.63151             3.86154           -0.728258           -0.260815          -0.0196816
Ar             6.17371             4.64147             4.64072           -0.500266            0.739647            0.637339
Ar            0.767554             5.40816             4.62549           -0.553283            0.146258           -0.837304
Ar             6.17443              5.4105              5.4142           -0.279089            0.452402            0.720634
Ar            0.771133              4.6314             5.39664           -0.220927           -0.306106            -1.00132
Ar             1.54749             6.17701          0.00602141            0.326561           -0.355557             0.72089
Ar             2.31071            0.769563             6.17103           -0.638279           -0.248508           -0.951595
Ar             1.55044            0.771725             0.76361            0.589506           -0.140098           -0.854947
Ar             2.30976             6.17025            0.763992           -0.711163           -0.924761           -0.822213
Ar             1.54288          0.00911628             1.54971           -0.140946            0.908897            0.507538
Ar             2.31567            0.773469             1.54577           -0.131248            0.140681            0.135934
Ar              1.5451            0.781312             2.32404           0.0903584            0.935618            0.697476
Ar             2.31618             6.17258             2.31103          -0.0751698           -0.699124           -0.591217
Ar             1.54048             6.17215             3.09112           -0.360285           -0.675671            0.168274
Ar             2.30993            0.768705             3.09593            -0.69775           -0.406129            0.652483
Ar             1.53899            0.777004             3.86164           -0.513613            0.450599         -0.00422484
Ar             2.31708             6.17697             3.87183          0.00537101           -0.265338             1.00105
Ar             1.54085             6.17161             4.62433           -0.330089           -0.708369           -0.974996
Ar             2.32019            0.768243             4.63152            0.319896           -0.469391            -0.24266
Ar             1.53881            0.769665              5.4112           -0.540033            -0.36643            0.546681
Ar              2.3224           0.0117343             5.39746            0.557078             1.38686           -0.922182
Ar             1.54897             1.54614             6.17695            0.451293            0.194401          -0.0882457
Ar             2.30982             2.32233             6.17203           -0.731057            0.519892           -0.914277
Ar             1.54688             2.31952            0.771099            0.240925            0.239674           -0.174843
Ar             2.32347             1.54509              0.7611            0.656156           0.0491164            -1.23531
Ar             1.55086              1.5358              1.5418            0.629921           -0.854706           -0.257392
Ar             2.31601             2.32273             1.55013          -0.0988559            0.575108            0.577645
Ar             1.54177              2.3259             2.31092           -0.253695            0.866673           -0.601735
Ar             2.31794             1.55411             2.32388            0.105249            0.946563             0.68877
Ar             1.55115             1.55039             3.08093            0.665293            0.591827           -0.818145
Ar             2.32138             2.31321             3.08981            0.443381            -0.36824           0.0482738
Ar             1.55268             2.31721             3.86609            0.819757           0.0104757            0.428525
Ar             2.32148               1.549             3.86858            0.460956            0.442351            0.676772
Ar             1.55389              1.5375             4.63024            0.927978           -0.674121           -0.364188
Ar              2.3193             2.31494             4.62686            0.238491           -0.195566           -0.706493
Ar             1.53597             2.32193             5.41247           -0.844151            0.486827            0.612335
Ar             2.31921              1.5438             5.40471             0.24968           -0.107622           -0.222012
Ar             1.54892             3.08596             6.17592            0.456386           -0.307046            -0.32365
Ar             2.32327             3.86666          0.00432793            0.610126            0.470733             0.83176
Ar             1.55261               3.855            0.761009             0.80065           -0.676759            -1.24336
Ar             2.32083             3.09816            0.763681            0.408652            0.844385           -0.896074
Ar             1.55357             3.08288             1.55054             0.88299           -0.622555            0.603214
Ar             2.32547             3.85755             1.54268            0.845419           -0.417315           -0.189804
Ar             1.55243              3.8606             2.31614             0.80568           -0.125792          -0.0783987
Ar             2.31691             3.08543             2.30977           0.0243688           -0.406178           -0.703658
Ar             1.54009             3.08973             3.09791           -0.436918           0.0355924            0.835554
Ar             2.32041             3.87093             3.08441            0.339517            0.908313            -0.49109
Ar             1.55038             3.86165             3.86706            0.608009          -0.0262462            0.532158
Ar             2.32058             3.09856             3.86044            0.375945            0.888648            -0.13154
Ar              1.5438             3.09367              4.6247          -0.0723086            0.423444           -0.902157
Ar             2.31389             3.86396             4.63699           -0.306767            0.221657             0.28308
Ar              1.5475             3.85693             5.40033            0.288944           -0.479715           -0.641108
Ar             2.31001             3.09815             5.39869           -0.646332            0.826591           -0.754758
Ar               1.546              4.6386          0.00109538            0.156605            0.463525           0.0374157
Ar             2.31054             5.40317          0.00839098           -0.629796            -0.37753             1.14356
Ar             1.53523             5.41156             0.77655            -0.90367             0.47348            0.354247
Ar             2.32337             4.63282            0.768149            0.652963            -0.13657           -0.312912
Ar             1.55435             4.63146             1.54554             0.95782           -0.271456           0.0935603
Ar             2.31317             5.41613             1.54697           -0.362711            0.887768            0.231719
Ar             1.54349             5.41087             2.31223           -0.106103            0.420648           -0.467365
Ar             2.31071             4.63476             2.32513           -0.600532           0.0657753            0.807479
Ar             1.55372             4.63799             3.09203            0.909014            0.387808            0.267444
Ar             2.32128             5.40166             3.09475            0.444744           -0.591131            0.528035
Ar             1.54696             5.40629             3.87147            0.238644           -0.109429            0.953231
Ar             2.31864             4.63134              3.8664            0.178462           -0.278106             0.46547
Ar             1.54743             4.63206             4.62467            0.296262           -0.194322           -0.934477
Ar             2.31629             5.39696             4.63715          -0.0406271            -0.94352            0.295995
Ar             1.55332             5.41613              5.4158             0.85134            0.991257             1.10067
Ar             2.31025             4.63228             5.41242           -0.619808           -0.223345            0.762211
Ar             3.08984             6.17228             6.17002           0.0791994           -0.690826            -1.09702
Ar             3.85369            0.774371          0.00877066           -0.814805            0.231027             1.12687
Ar             3.09073            0.767852            0.762745            0.141197           -0.500295           -0.987944
Ar             3.86364              6.1749            0.782785            0.189601           -0.552089             1.05584
Ar             3.09528         0.000575532             1.55429            0.602866          -0.0436995            0.977061
Ar             3.85743            0.764757              1.5423           -0.425413           -0.748575           -0.213812
Ar             3.09752            0.768656             2.31636            0.813857           -0.421859          -0.0530281
Ar              3.8669          0.00453414             2.30887            0.520681            0.802397            -0.79022
Ar             3.08963          0.00366923             3.07967           0.0429003            0.316277           -0.946285
Ar             3.87062            0.764767              3.0882            0.884656           -0.664673           -0.109535
Ar             3.08785            0.770907             3.86142           -0.124056           -0.166702          -0.0361206
Ar             3.85405          0.00853083             3.85398           -0.757657             1.14556           -0.765096
Ar             3.08779             6.17204             4.63825            -0.12779           -0.598001            0.412889
Ar             3.85236            0.769088              4.6426           -0.934722           -0.251221            0.839012
Ar             3.08552            0.763204             5.39763           -0.369954           -0.969319           -0.857588
Ar             3.86138             6.17673             5.40008          -0.0134482           -0.234261           -0.688962
Ar             3.09582             1.54314             6.17371            0.645238           -0.103768           -0.352594
Ar             3.86318             2.31712             6.17237            0.126532          0.00451057           -0.996341
Ar              3.0998             2.32719            0.778885              1.0438              1.0005            0.582416
Ar             3.87156             1.54155            0.779247            0.988349           -0.286966            0.594677
Ar             3.09617             1.53591             1.54883            0.663882           -0.843321             0.43505
Ar             3.85911              2.3239             1.54751           -0.258229             0.68785            0.311552
Ar             3.08088             2.32233             2.31159           -0.813488            0.517339            -0.53192
Ar             3.86306             1.53563              2.3123            0.152544           -0.893384           -0.461934
Ar             3.09539             1.55423             3.09943            0.603628            0.947449               0.994
Ar              3.8633              2.3204             3.09661            0.150465            0.341135            0.715805
Ar              3.0859             2.31515             3.85719           -0.317597           -0.188782           -0.443999
Ar             3.85373             1.55182             3.85866           -0.772285            0.689731            -0.29111
Ar             3.09611             1.54423             4.63334            0.663948          -0.0105665          -0.0627873
Ar             3.86403             2.31389             4.63599             0.22361           -0.299121            0.196305
Ar             3.09909             2.32545             5.40604            0.945871            0.843711          -0.0934615
Ar             3.85916             1.53722             5.39921           -0.218404           -0.731446           -0.752568
Ar             3.08579             3.09095             6.17286           -0.332337            0.167861           -0.509859
Ar             3.87026             3.86914            0.003883            0.828542            0.715503            0.652168
Ar             3.08256             3.86506            0.779654           -0.638199            0.309687            0.741938
Ar             3.85564             3.08344            0.779229           -0.590928           -0.582884            0.572855
Ar             3.08099             3.08724             1.54036           -0.817893           -0.204134           -0.391679
Ar             3.86417             3.85426             1.53916            0.235415           -0.737409           -0.526017
Ar             3.09765              3.8655              2.3149            0.831561            0.358001           -0.202234
Ar             3.86289             3.08931              2.3215            0.125249          -0.0179921            0.446972
Ar             3.08638             3.08969             3.09149           -0.287599           0.0403977            0.208962
Ar             3.85459             3.85501             3.09865           -0.711294           -0.666011            0.930821
Ar             3.09447             3.85661             3.85963            0.515748            -0.51746           -0.205598
Ar             3.86126             3.09026             3.85787          -0.0279755           0.0673939           -0.375745
Ar             3.09745             3.08233             4.64203            0.789031           -0.681634            0.777427
Ar             3.87172             3.86589             4.64201            0.987402            0.403432            0.765207
Ar             3.08378              3.8686              5.4016           -0.538565            0.679272           -0.413331
Ar             3.86533             3.09412             5.41531            0.389019            0.438872            0.812983
Ar             3.08118             4.63118             6.17835           -0.778996           -0.261853            0.147083
Ar             3.86381             5.41441            0.005384             0.20922            0.623428             0.55391
Ar              3.0898             5.39811            0.768185            0.049567           -0.857716           -0.527548
Ar             3.86207             4.64427            0.768851           0.0509071            0.989097           -0.386906
Ar              3.0986             4.62519             1.54149            0.900515           -0.876422           -0.274555
Ar             3.86099               5.406             1.54016          -0.0502679             0.02431           -0.431424
Ar             3.08375             5.39947             2.32303           -0.537124           -0.601998            0.592821
Ar             3.85466             4.64115             2.32013           -0.678108             0.65843            0.320926
Ar              3.0922             4.63066             3.08523            0.280234           -0.352731           -0.394777
Ar             3.86439             5.40711             3.08802            0.280406            0.177154           -0.128936
Ar             3.09217             5.41534             3.86569            0.277794            0.917183            0.383277
Ar             3.85535              4.6345             3.85534           -0.613018            0.012444           -0.623865
Ar             3.08833             4.64226             4.63771          -0.0902724            0.808274            0.364951
Ar             3.86271             5.39703             4.63277            0.111081           -0.948566           -0.148068
Ar             3.08396             5.39782             5.40298            -0.53977            -0.85522           -0.286253
Ar             3.85258             4.63044             5.40972           -0.868476           -0.382406             0.35361
Ar             4.63144           0.0100725             6.17601            -0.23881             1.02462           -0.300995
Ar             5.41124            0.767382             6.17697            0.556573           -0.431585           -0.425565
Ar             4.63757            0.768055            0.772503            0.346548           -0.419964           -0.116573
Ar             5.41156          0.00230966            0.762032            0.622254            0.293233            -1.19783
Ar             4.62815             6.17566             1.53897           -0.570158            -0.24802           -0.531358
Ar              5.3999            0.762147             1.55109           -0.620756            -1.08073             0.66866
Ar             4.63692            0.778595             2.31375            0.299803            0.644443           -0.312554
Ar             5.40567         0.000159599             2.31004          -0.0507479           0.0749311            -0.67739
Ar             4.63207             6.17075             3.08314           -0.168377           -0.674522           -0.613546
Ar             5.39838            0.772214             3.08445            -0.87538           -0.100918             -0.4761
Ar             4.63232            0.764998              3.8616           -0.150594           -0.637798         -0.00767136
Ar             5.39853             6.17442             3.85314           -0.795637           -0.370732           -0.844292
Ar               4.644             6.17513             4.63297            0.986282            -0.42669           -0.104691
Ar             5.39762            0.770639             4.62563           -0.943626           -0.313721            -0.82276
Ar             4.63372            0.765521             5.40539          -0.0318166           -0.750829           -0.167412
Ar             5.41323         0.000377227             5.41495            0.681661            0.329903            0.728298
Ar             4.62847             1.53944          0.00346622           -0.548362           -0.488117            0.251563
Ar             5.40579             2.31253          0.00265169           0.0167094           -0.453889            0.332431
Ar             4.63846             2.30718            0.769134            0.424835            -0.97628            -0.36128
Ar             5.41283             1.54162            0.761934            0.763067           -0.311323            -1.15632
Ar             4.62482             1.54624             1.53867           -0.897632            0.180224            -0.57771
Ar             5.40902             2.30891             1.55412            0.333926           -0.795469            0.944053
Ar             4.63666             2.31332             2.31381            0.250782           -0.373976            -0.30751
Ar             5.41549             1.55356             2.31974            0.883461            0.874918             0.27377
Ar              4.6335              1.5363             3.08937          -0.0556832            -0.78245          0.00321001
Ar             5.40323             2.31667             3.09157           -0.236618          -0.0263396            0.218819
Ar             4.64422             2.31069             3.85865            0.990598           -0.629109           -0.298203
Ar             5.41447              1.5378             3.85326            0.762472           -0.654583             -0.8323
Ar             4.63408             1.54326             4.63651          0.00608866           -0.110454            0.218803
Ar             5.40625             2.31925             4.63658           0.0439315            0.226515            0.232384
Ar             4.63415             2.31649             5.40732         -0.00639191          -0.0448929           0.0891949
Ar             5.40516             1.54405             5.40122          -0.0649651          -0.0683986           -0.444646
Ar             4.63776             3.08475           0.0034826             0.38016           -0.434738            0.248093
Ar             5.41216             3.85844          0.00368384            0.653413           -0.341282            0.489598
Ar             4.64199             3.86768            0.765981            0.776486            0.574656           -0.618789
Ar             5.41509              3.0916            0.771879            0.990584            0.198614          -0.0276215
Ar             4.64226             3.08223             1.54466            0.783846           -0.695645           0.0034698
Ar             5.41501             3.85817             1.53774            0.980287           -0.346267           -0.676864
Ar             4.63003             3.86758             2.31311           -0.379141            0.567535           -0.382224
Ar             5.41511              3.0855             2.32639            0.978395           -0.389069            0.919016
Ar             4.63067             3.08592             3.09697           -0.346003           -0.334175            0.740521
Ar             5.41587             3.86999             3.08378            0.885625            0.807256           -0.551881
Ar             4.63586             3.86496             3.86432            0.200773            0.300544             0.25529
Ar             5.40255             3.09833             3.86565            -0.28173            0.863332            0.383915
Ar             4.62444             3.08388             4.63591           -0.957258           -0.539311            0.159614
Ar             5.40677             3.86302             4.63542           0.0871617            0.126576            0.121118
Ar             4.63609             3.87091              5.4071            0.189878            0.902516            0.124238
Ar               5.399             3.08953             5.39997           -0.611138          -0.0149825           -0.470361
Ar             4.63347             4.64103          0.00573938           -0.050845            0.691575            0.642071
Ar             5.39743             5.41294             6.17904           -0.870202            0.773325          -0.0297561
Ar             4.62673             5.40692            0.767845           -0.717757           0.0732448           -0.517248
Ar             5.40195              4.6279            0.779242           -0.325782           -0.628594            0.669334
Ar             4.63004             4.64195             1.54557           -0.408428            0.772371            0.101479
Ar             5.40952              5.4014             1.54948            0.453152           -0.487526            0.486217
Ar             4.63984             5.41047             2.31725            0.547659            0.401739           0.0307107
Ar             5.39855             4.63114             2.32108           -0.739456           -0.305335             0.40194
Ar             4.63509              4.6408             3.08053           0.0991058            0.657715           -0.854783
Ar             5.40845             5.41162             3.08623             0.25315            0.460914           -0.308377
Ar             4.63239             5.40086             3.86263           -0.182258           -0.587654           0.0838054
Ar             5.40844             4.63567              3.8547            0.180342            0.148238           -0.685557
Ar             4.64239             4.62485             4.63429            0.815388           -0.892813          0.00206747
Ar             5.41561             5.39698              4.6354            0.887366           -0.979411            0.118102
Ar             4.63985             5.41242              5.4178            0.546793            0.606367             1.25109
Ar             5.40488             4.63191             5.41429          -0.0827254           -0.243098            0.961382
