256
Position of argon atoms in fcc cell after one integration
Ar           0.0212788            0.022616             6.15608             2.18952             1.52193            -1.64408
Ar            0.775162            0.770931            0.018506            0.211085            0.220973             1.27689
Ar           0.0261282            0.791541            0.792024             1.79551             1.16981             1.08178
Ar            0.791702             6.16739             0.76574             1.02425           -0.557713           -0.219129
Ar           0.0219605              6.1668             1.53455             1.39747           -0.934769           -0.427528
Ar            0.779819            0.765076             1.56471            0.674541           -0.442894             1.05527
Ar             6.17638            0.795375             2.31033           -0.144933             1.22037           -0.323148
Ar            0.772051             6.15773             2.31592           0.0464135            -1.21425          -0.0225931
Ar             6.15724             6.17102             3.09368            -1.61186           -0.748116            0.237883
Ar            0.776737            0.763491             3.09137             0.24118           -0.385589            0.106975
Ar              6.1585            0.789166             3.87231            -1.11456            0.990509            0.528691
Ar            0.769901             6.16195             3.87952          -0.0251033            -1.01394            0.944763
Ar             6.16761              6.1541             4.62412            -1.13531            -1.71596           -0.455873
Ar            0.762959             0.75061             4.64312           -0.521672            -1.25494             0.49421
Ar             6.15955            0.755148             5.41457           -0.943807           -0.878355              0.4051
Ar            0.758648            0.026336              5.4034           -0.863297             1.53022          -0.0981895
Ar           0.0154843             1.55383             6.15719            0.941946            0.545754             -1.5164
Ar            0.777971             2.30649            0.025727            0.343414           -0.547677             1.71028
Ar           0.0246498             2.31771            0.780683             1.80228           0.0291657            0.369929
Ar            0.776151             1.55867            0.763048            0.330504            0.702566           -0.409292
Ar             6.16306             1.53489             1.54256           -0.543966           -0.364169          -0.0366766
Ar            0.756177             2.31426             1.55684           -0.925437          -0.0829584            0.711497
Ar           0.0275571             2.32154             2.31213             1.72549            0.242826           -0.199533
Ar            0.782262             1.55551             2.32915            0.480332            0.570639             0.65521
Ar             6.16868             1.52911             3.09677           -0.533332           -0.674753            0.384693
Ar            0.788669             2.30283             3.08555            0.770499           -0.678538           -0.136357
Ar           0.0205743             2.33327             3.84511              1.1948            0.852908           -0.822507
Ar            0.788083             1.55278             3.86445            0.721349            0.420318            0.179136
Ar             6.16202             1.55811             4.65491            -1.20563            0.748415             1.08498
Ar            0.785083             2.31288             4.61555            0.568784           -0.136061            -0.92763
Ar           0.0177403             2.31305             5.42123              1.0464            -0.13864            0.621535
Ar            0.760699             1.52481             5.41814           -0.732348             -1.0007            0.735983
Ar             6.17053             3.10219           0.0278051           -0.984751            0.735482             1.78794
Ar            0.752512             3.84966             6.16812            -1.28019           -0.589147           -0.964972
Ar            0.017402             3.84387            0.768097            0.981845           -0.896269           -0.366095
Ar            0.771806             3.10189            0.792141           -0.108554            0.614757            0.958131
Ar           0.0178929             3.09854             1.54233              1.5146            0.520988          -0.0379152
Ar            0.767324             3.85273             1.55491            -0.10326           -0.385302            0.613101
Ar             6.16985             3.85027             2.32204           -0.778796           -0.582903            0.310203
Ar            0.763796             3.07724             2.30359           -0.470589           -0.595545           -0.598826
Ar            0.017349              3.0825             3.09963             1.19692             -0.2678            0.512885
Ar            0.755462             3.84421             3.10185           -0.675919           -0.853563            0.673219
Ar             6.16702             3.87023             3.86112            -0.82994             0.42441         -0.00198722
Ar            0.761628             3.08571              3.8798           -0.567684           -0.149529            0.938818
Ar           0.0123749             3.10639             4.63271            0.827732            0.888671         0.000649526
Ar            0.758027             3.86878             4.64145            -0.70187            0.414954            0.449869
Ar          0.00999257             3.85091             5.38595            0.903402           -0.503233              -1.098
Ar            0.752033             3.07939              5.4112            -1.00386           -0.541685            0.380405
Ar           0.0136486             4.62267           0.0128889             1.07507           -0.528076            0.769156
Ar            0.769299             5.41476             6.17264           0.0763512            0.545389           -0.505249
Ar          0.00264239             5.38483            0.786018            0.414305            -1.27912            0.646909
Ar            0.760746             4.62772            0.788937           -0.554863           -0.284342            0.738596
Ar           0.0130318             4.63464             1.55583            0.803398           0.0865614            0.620995
Ar            0.754758             5.41049             1.54272           -0.826974           0.0205571           0.0102315
Ar           0.0170063             5.39411             2.31078             1.27406           -0.780949           -0.246307
Ar            0.777022             4.65117             2.30802            0.328675            0.825197             -0.3896
Ar             6.15981             4.62765             3.08149           -0.992533           -0.309285           -0.364139
Ar            0.787977             5.41414             3.08818            0.717682            0.295949          -0.0256628
Ar           0.0129374             5.42024              3.8561             0.51698            0.510242           -0.244646
Ar            0.757431             4.62909             3.86156           -0.868175           -0.213692           0.0226637
Ar             6.16849              4.6495             4.64733           -0.552065            0.845156            0.662322
Ar            0.760731              5.4095             4.61738           -0.808897            0.107539            -0.75444
Ar             6.17341             5.41519             5.42152           0.0848102            0.468013            0.674481
Ar            0.767725              4.6282             5.38656           -0.460459               -0.32           -0.971376
Ar              1.5515             6.17149           0.0150867             0.46715           -0.753894             1.08458
Ar             2.30409            0.766981             6.15985            -0.66855           -0.276965            -1.24282
Ar             1.55674            0.769448            0.754958            0.646496           -0.313867            -0.84809
Ar             2.30269             6.16092            0.755585           -0.679224           -0.893283            -0.83445
Ar               1.542           0.0187529             1.55512          -0.0269177            0.991079             0.55574
Ar             2.31444            0.775527             1.54752            -0.11312            0.289931            0.204529
Ar             1.54664            0.791395             2.33138            0.212929             1.04556            0.746858
Ar             2.31566             6.16513             2.30505          -0.0266744           -0.715106           -0.589278
Ar             1.53749             6.16547             3.09293           -0.226772           -0.633876            0.183209
Ar             2.30292            0.764195             3.10289           -0.681991           -0.478835            0.716464
Ar              1.5343            0.781588             3.86194           -0.411523            0.452763           0.0645912
Ar             2.31722             6.17359             3.88242           0.0178541           -0.407308             1.08624
Ar             1.53804             6.16496             4.61451           -0.223726           -0.590636            -0.95484
Ar              2.3237            0.762706             4.62949            0.371865           -0.628507            -0.15264
Ar             1.53383             0.76512             5.41781           -0.438254            -0.51878            0.748625
Ar             2.32861            0.028414              5.3881            0.671797             1.90412           -0.914028
Ar             1.55399             1.54877             6.17728            0.537444            0.324055            0.146868
Ar             2.30217             2.32784             6.16083            -0.78003            0.568441            -1.27696
Ar             1.54966             2.32209            0.768882             0.30509            0.268832           -0.259294
Ar             2.33052             1.54572            0.747229            0.730719           0.0720617            -1.49202
Ar              1.5575             1.52746             1.53948            0.671178           -0.780441           -0.202099
Ar             2.31511             2.32897             1.55665          -0.0812561            0.658019            0.709924
Ar             1.53966             2.33485             2.30484           -0.160748            0.895905           -0.598444
Ar             2.31923             1.56409             2.33128            0.145614             1.01993            0.771757
Ar             1.55829             1.55681             3.07303            0.737298            0.671139           -0.729137
Ar             2.32629             2.30969             3.09059            0.527126           -0.322469            0.108198
Ar             1.56151             2.31741             3.87069            0.917279           0.0297717            0.476508
Ar             2.32655             1.55381             3.87579            0.534288            0.504949            0.743262
Ar             1.56356             1.53107             4.62704            0.968301            -0.59094           -0.259807
Ar             2.32211             2.31322             4.61999            0.317408            -0.14084           -0.643191
Ar             1.52759             2.32706             5.41923           -0.807497            0.521507            0.715803
Ar              2.3222              1.5426             5.40222              0.3337            -0.12834           -0.269905
Ar             1.55397             3.08344             6.17224            0.530464           -0.182344           -0.417916
Ar             2.32964             3.87158           0.0167148            0.645436            0.497455             1.54859
Ar             1.56097             3.84821            0.747044            0.837344           -0.657978            -1.50567
Ar             2.32561             3.10667            0.754368            0.537013            0.825203           -0.921289
Ar             1.56272             3.07705             1.55699            0.914893           -0.516297            0.661589
Ar             2.33447             3.85341             1.54085            0.927675           -0.399381           -0.173785
Ar             1.56114             3.85943              2.3156            0.904937           -0.103013           -0.027609
Ar             2.31781             3.08127              2.3029            0.159899           -0.413761           -0.643263
Ar             1.53591             3.09027              3.1065           -0.383073           0.0699117            0.850646
Ar             2.32408             3.88051             3.07951            0.382542            0.979345           -0.475136
Ar             1.55715             3.86141             3.87289            0.722529          -0.0226188            0.619019
Ar             2.32486             3.10764             3.85925            0.467405            0.894736           -0.104391
Ar             1.54333             3.09816             4.61616          -0.0204434             0.45729           -0.769099
Ar             2.31088              3.8665             4.64024           -0.287488            0.278166            0.362211
Ar             1.55067             3.85214             5.39376            0.335931           -0.466042           -0.648739
Ar             2.30406             3.10632             5.39127           -0.521315            0.775605           -0.712052
Ar             1.54796             4.64378          0.00172581            0.229468             0.55441            0.140867
Ar             2.30438             5.39869           0.0232342           -0.580468           -0.520658             1.75404
Ar             1.52627             5.41622            0.779603           -0.856815            0.433941            0.246824
Ar             2.33053             4.63157            0.765736            0.758361           -0.111871           -0.211164
Ar             1.56423             4.62884             1.54665            0.981862           -0.242687            0.124049
Ar             2.30972             5.42493             1.54944           -0.319522            0.873411            0.251535
Ar             1.54261             5.41534             2.30764          -0.0668356            0.459626           -0.437423
Ar             2.30492             4.63582             2.33364           -0.539327            0.149346            0.866764
Ar             1.56317             4.64225             3.09505            0.942675             0.45241            0.328982
Ar             2.32626             5.39487             3.10029            0.535346           -0.737094              0.5608
Ar             1.54966              5.4044             3.88132            0.293977           -0.269523            0.979854
Ar             2.32076             4.62873             3.87151             0.23542           -0.232608              0.5442
Ar             1.55073             4.63041             4.61542            0.347124           -0.129999           -0.881088
Ar             2.31644             5.38743             4.64047           0.0732779           -0.936742            0.362391
Ar             1.56199             5.42663              5.4296             0.84886             1.05616              1.6382
Ar             2.30463             4.62984             5.42212           -0.484121           -0.255735             1.11547
Ar             3.09115             6.16497             6.15688             0.17704           -0.758949            -1.48086
Ar             3.84529            0.776853           0.0226807            -0.84399            0.246565             1.59865
Ar             3.09229            0.762399            0.752501            0.157868           -0.556994            -1.01266
Ar             3.86586             6.16777            0.794092            0.248607           -0.824991              1.1784
Ar             3.10189             6.17788             1.56468            0.699277           -0.437038              1.0671
Ar             3.85329            0.756782             1.54053           -0.390145           -0.898225           -0.129173
Ar             3.10608            0.763703             2.31615            0.866176           -0.610525           0.0148759
Ar             3.87271           0.0159569             2.30117            0.628352             1.35589           -0.720911
Ar             3.09042          0.00664155             3.07036            0.111876            0.288895           -0.881693
Ar             3.88007            0.758951              3.0874            0.977787           -0.473756          -0.0443389
Ar             3.08712            0.768846             3.86118           -0.016689           -0.245681          -0.0135419
Ar             3.84655           0.0224597             3.84641           -0.716689             1.55249           -0.721305
Ar             3.08706             6.16687             4.64274          -0.0114337           -0.421934            0.469663
Ar             3.84281            0.767283              4.6516           -0.949178           -0.101434            0.939925
Ar             3.08212            0.752462             5.38923           -0.293767            -1.15649           -0.797887
Ar             3.86175             6.17458             5.39263           0.0907008           -0.184997           -0.778281
Ar             3.10262             1.54267             6.17274             0.68924           0.0116425            0.200269
Ar             3.86455             2.31732             6.15924            0.143908           0.0376434             -1.5655
Ar             3.11083             2.33767            0.784816             1.12751             1.06664            0.610292
Ar             3.88216             1.53901            0.784864             1.10066           -0.209784            0.527083
Ar             3.10301             1.52773             1.55358            0.678617           -0.750908            0.497609
Ar             3.85671             2.33121             1.55113           -0.212525             0.75118            0.399732
Ar             3.07307             2.32774             2.30631           -0.718219            0.548036           -0.508243
Ar             3.86514             1.52662             2.30774            0.260849           -0.878438            -0.43765
Ar             3.10196             1.56405             3.10984            0.694602            0.983961             1.05687
Ar               3.865             2.32415             3.10416            0.183179            0.396709            0.769103
Ar             3.08316              2.3134             3.85298           -0.218459           -0.151207           -0.381883
Ar             3.84626             1.55874             3.85617           -0.694471            0.667056           -0.192458
Ar             3.10307             1.54459             4.63314            0.704428           0.0813513           0.0262972
Ar              3.8665             2.31112              4.6384            0.260896           -0.244996            0.279465
Ar             3.10869             2.33443              5.4048            0.937133            0.924719           -0.154013
Ar             3.85754             1.52993             5.39149           -0.101381           -0.701253           -0.764113
Ar             3.08282             3.09293             6.16952           -0.252555            0.218939           -0.108629
Ar             3.87889             3.87657           0.0130371            0.872959             0.74689             1.12535
Ar             3.07674             3.86827            0.787358           -0.497956            0.321949            0.752552
Ar              3.8499             3.07786            0.784242           -0.536535           -0.505825             0.42184
Ar             3.07298             3.08545             1.53683           -0.752967           -0.147481           -0.302766
Ar             3.86671             3.84695             1.53413            0.262087            -0.70061           -0.460531
Ar             3.10648              3.8693             2.31305            0.902946            0.392805             -0.1625
Ar             3.86447             3.08922             2.32627             0.18291         0.000816773            0.492121
Ar             3.08377             3.09046              3.0938           -0.222851             0.11301            0.242491
Ar              3.8474             3.84837             3.10868           -0.706431           -0.641006             1.05119
Ar             3.10001             3.85147             3.85781             0.57149           -0.492674           -0.150798
Ar             3.86143             3.09087             3.85437           0.0633191           0.0499349           -0.311107
Ar             3.10555             3.07579             4.65007            0.801398           -0.599979            0.799027
Ar             3.88212             3.87013             4.64994             1.06102            0.427733             0.79553
Ar              3.0787             3.87582             5.39775           -0.456598            0.743316           -0.390782
Ar             3.86991             3.09855             5.42314            0.514995            0.435346            0.717465
Ar             3.07382             4.62907          0.00222598           -0.662838           -0.148747              0.3205
Ar             3.86628             5.41936           0.0111582              0.2802            0.348345            0.593082
Ar             3.09063             5.38914            0.762126            0.116563           -0.911665           -0.614295
Ar             3.86305             4.65447            0.764871            0.144984             1.01454           -0.368365
Ar             3.10782             4.61669             1.53917            0.909665           -0.780881           -0.185897
Ar             3.86101             5.40709             1.53603           0.0579454            0.143808           -0.378753
Ar             3.07877             5.39415             2.32919           -0.437732           -0.480335            0.615299
Ar             3.84819             4.64771             2.32379           -0.593285            0.629425             0.40279
Ar             3.09527             4.62717             3.08164            0.322361           -0.334625            -0.30703
Ar             3.86771             5.41015             3.08696            0.374105            0.409982          -0.0791161
Ar             3.09523             5.42535             3.86971             0.32449             1.04781            0.402411
Ar             3.84949             4.63465             3.84932           -0.539008           0.0183087            -0.55692
Ar             3.08783             4.65081             4.64174         -0.00240652            0.874285            0.421359
Ar             3.86423             5.38726              4.6313            0.188314           -0.979872           -0.143149
Ar             3.07865             5.38927             5.40101           -0.502328            -0.83144          -0.0804558
Ar             3.84429             4.62661             5.41447           -0.762797           -0.368826            0.624116
Ar             4.62952           0.0206338             6.17302           -0.139146             1.07558           -0.345241
Ar             5.41791            0.762893             6.17012            0.742532           -0.453806           -0.924697
Ar             4.64142            0.763963            0.769917            0.409695           -0.378608           -0.398051
Ar             5.41944          0.00612911            0.748205            0.905549            0.458398            -1.58612
Ar              4.6229               6.174             1.53396           -0.455037          -0.0564704           -0.453013
Ar             5.39382            0.749706             1.55846           -0.589321            -1.37368            0.783544
Ar             4.64046            0.785117             2.31086            0.396699            0.638896           -0.252456
Ar             5.40544          0.00136221             2.30342         -0.00922485             0.18332           -0.622932
Ar             4.63102             6.16589             3.07705          -0.0338894           -0.278953           -0.586493
Ar             5.38896            0.770775             3.07994           -0.975022           -0.181584           -0.407291
Ar             4.63132            0.759675             3.86187          -0.0435268           -0.397442           0.0641331
Ar             5.39052             6.17164             3.84481           -0.782955           -0.173617           -0.790364
Ar             4.65434             6.16933             4.63223             1.04519           -0.749553          -0.0418209
Ar             5.38764            0.765547             4.61767            -1.01375           -0.698098            -0.73877
Ar             4.63369            0.756488             5.40321           0.0242126            -1.03264           -0.267004
Ar             5.42076          0.00323579             5.42174            0.803316            0.223033            0.542289
Ar             4.62322             1.53484          0.00518971           -0.482234           -0.416109           0.0925653
Ar             5.40689              2.3079          0.00667003            0.188532           -0.458102            0.454469
Ar             4.64292             2.29732            0.765208            0.446573           -0.962573           -0.401221
Ar             5.42231             1.53838            0.748776             1.10107           -0.328909            -1.43474
Ar              4.6162             1.54839             1.53306           -0.791603            0.239986           -0.523833
Ar             5.41315             2.30095             1.56403            0.455763           -0.772438             1.00569
Ar             4.63941             2.30956             2.31093            0.287808           -0.366345           -0.258477
Ar             5.42465             1.56241             2.32276            0.913788            0.861733              0.3224
Ar             4.63319             1.52896             3.08964         -0.00555343           -0.655375           0.0503841
Ar             5.40159             2.31666             3.09403           -0.103721           0.0251332            0.265468
Ar             4.65443              2.3044             3.85595             1.01477           -0.607791           -0.231418
Ar             5.42198             1.53155             3.84506            0.701201           -0.569159           -0.778607
Ar             4.63449             1.54251             4.63877           0.0749285          -0.0382163            0.223005
Ar             5.40717              2.3218              4.6391            0.115695            0.275935            0.262284
Ar             4.63426             2.31627             5.40841           0.0310166          0.00281225             0.11595
Ar             5.40524             1.54322              5.3976           0.0733723          -0.0956261            -0.27097
Ar             4.64207             3.08073          0.00481039            0.466068           -0.356487          0.00293955
Ar             5.41994             3.85504          0.00995953            0.869708            -0.32554            0.758291
Ar             4.65014             3.87374            0.759797             0.82692            0.622263           -0.597374
Ar             5.42696             3.09354            0.771951             1.34395            0.178831           0.0489957
Ar             4.65025             3.07545             1.54478            0.784749           -0.637197           0.0145091
Ar             5.42693             3.85496             1.53094              1.3739           -0.282156           -0.663953
Ar             4.62662              3.8736             2.30936           -0.292171            0.620987           -0.357831
Ar             5.42657             3.08169             2.33577             1.26919           -0.360077            0.920125
Ar             4.62737              3.0828             3.10454            -0.30052           -0.279019            0.743763
Ar             5.42448             3.87834              3.0783            0.791576             0.83124            -0.52921
Ar             4.63848             3.86808             3.86717            0.316021            0.313364            0.304962
Ar             5.40072             3.10709             3.86976           -0.091694            0.855654             0.42412
Ar             4.61494             3.07857             4.63755           -0.906112           -0.506592            0.159422
Ar             5.40857             3.86455             4.63686            0.268407            0.173818            0.165315
Ar              4.6383             3.88034             5.40906            0.247899            0.952179            0.251504
Ar             5.39402             3.08927             5.39684           -0.382647          -0.0360819           -0.157316
Ar             4.63341              4.6485           0.0136151           0.0421825            0.781395            0.868384
Ar             5.38868             5.42344         0.000318451           -0.884312             1.31274           0.0580853
Ar             4.61972             5.40805             0.76166            -0.65533            0.141051           -0.652126
Ar             5.40023             4.62169            0.785914          -0.0256304           -0.585499             0.65263
Ar             4.62609             4.65001             1.54686           -0.366573            0.810987            0.151631
Ar             5.41649             5.39718              1.5547            0.923086           -0.346426            0.527898
Ar             4.64546             5.41541             2.31781            0.555484            0.569597           0.0794101
Ar             5.39142             4.62808             2.32531           -0.676598           -0.292915             0.42563
Ar             4.63631             4.64766              3.0723            0.137376            0.687434           -0.757035
Ar             5.41177             5.41647             3.08327            0.392273            0.487522           -0.275982
Ar             4.63064             5.39459             3.86363            -0.16305           -0.654555            0.111909
Ar             5.41028             4.63741             3.84809            0.175096            0.196478           -0.610296
Ar             4.65088             4.61631             4.63436            0.850809           -0.780376          0.00927576
Ar             5.42465             5.38711             4.63679            0.881443           -0.965255            0.144032
Ar             4.64539             5.41981             5.43204            0.538477            0.854608             1.64978
Ar             5.40495             4.62929             5.42609            0.090346           -0.271204             1.39098
