256
Position of argon atoms in fcc cell after one integration
Ar            0.266484            0.116678               5.999             18.9753             5.06646              -15.38
Ar            0.787699            0.802111           0.0307447            0.854307              1.9181            -4.74089
Ar            0.134892            0.846349            0.836171             4.71964             1.95715             1.44914
Ar             0.83741             6.14398            0.768047             1.71489            -1.01402            0.365288
Ar           0.0774035             6.12381             1.52364             1.68966            -1.36543           -0.185687
Ar            0.824689            0.744758             1.60919             1.91358           -0.710215             1.48357
Ar             6.17354            0.842281             2.29633          -0.0695011             1.44589           -0.528681
Ar            0.778086             6.10068             2.31711            0.283083            -2.09988            0.085426
Ar             6.05999             6.11634             3.10438            -3.97071            -2.69634             0.40154
Ar             0.79003            0.757158             3.09401            0.546813           0.0796161         -0.00119265
Ar             6.11436            0.831884             3.88925            -1.42232             1.45795            0.349451
Ar            0.785965             6.10001             3.92302             1.20994            -2.70839             1.64088
Ar             6.05642               6.055             4.60761            -5.93319            -4.20183           -0.530229
Ar            0.741493            0.690388             4.67087           -0.473498            -2.18903              1.2848
Ar             6.17809            0.728726             5.42065             5.80618            0.241354           -0.475165
Ar            0.713765           0.0716273             5.39148           0.0576392            0.462431            -3.87915
Ar           0.0656347             1.58416             6.05736             2.19996             1.32152            -4.70941
Ar            0.788909             2.28003           0.0946417             0.17912            -1.09554             1.78908
Ar            0.114245             2.31762            0.801858             3.01585          -0.0769313             1.12267
Ar            0.797414             1.58013            0.754766            0.978605            0.370147           0.0895555
Ar          0.00141577             1.53538             1.54619             1.92782            0.535807             0.26979
Ar            0.706316             2.31855             1.60234            -2.24944            0.459468             2.29412
Ar            0.102818             2.33531               2.314             2.25279            0.648641            0.596371
Ar            0.802697             1.57756             2.35969            0.711555            0.650781             1.13711
Ar              6.1445             1.51258             3.11181           -0.912788           -0.221079            0.449482
Ar            0.819053             2.27977             3.08782             1.01306           -0.613456            0.355695
Ar            0.060374             2.37418             3.81293            0.920635             1.61856            -1.05549
Ar            0.812966             1.56778             3.87609            0.732499            0.403304            0.515817
Ar             6.07197             1.59213             4.70165            -4.27065             1.22251             1.69177
Ar             0.80741             2.31613             4.58029            0.801284            0.401025            -1.09278
Ar           0.0429001             2.31838             5.44087             0.03627            0.686628            0.402586
Ar            0.732528             1.48749             5.44569           -0.510529            -1.11541            0.622695
Ar             6.01622             3.14686            0.134923            -11.8171             2.40365             5.30524
Ar            0.672559             3.83151             6.09935            -3.38928           -0.375456            -3.79843
Ar           0.0198871             3.81392            0.741948            -2.72614            -0.55685           -0.981427
Ar            0.763479             3.12423            0.828626           -0.319594            0.653824             1.25975
Ar             0.11019             3.12808             1.55367             3.70347             1.34675            0.938362
Ar            0.771416              3.8472             1.58567            0.340402            0.211771             1.12831
Ar             6.12866              3.8263             2.33981            -1.49898           -0.847552            0.738647
Ar             0.75178             3.06006             2.29208           0.0556512           -0.228217            0.140943
Ar           0.0736569             3.08363             3.11661             1.84032            0.496824            0.389991
Ar            0.743099             3.81518             3.13078           0.0338714           -0.729331            0.948758
Ar             6.12012             3.88687             3.86255             -1.9068            0.517796           0.0609415
Ar            0.743143              3.0879             3.92009           -0.383957            0.410394             1.39951
Ar            0.046061             3.14631             4.64531            0.948991             1.50027            0.904386
Ar             0.73016              3.8931             4.67057            -1.00899                1.06             1.42574
Ar           0.0613756             3.83644             5.35143             1.66806           -0.248251           -0.676344
Ar            0.726238             3.05538             5.42485           -0.194754           -0.858731            0.199285
Ar           0.0617806             4.60872           0.0264203             1.50832           -0.158847           -0.681674
Ar            0.787448             5.45294              6.1458            0.894938             2.17824            -1.22459
Ar           0.0400444             5.32387            0.819169             1.89084            -2.15454             1.41472
Ar            0.744394              4.6193            0.823744           -0.317939           -0.253442             1.42274
Ar           0.0549797             4.64431             1.58792             1.72083            0.531331             1.33471
Ar             0.73298             5.40174             1.55474           -0.279731           -0.558629            0.807706
Ar           0.0824715             5.35867             2.31081             2.31579            -1.22292            0.384055
Ar            0.800436             4.67639             2.29989             1.12007            0.487433          -0.0153073
Ar                6.12             4.61306             3.07008            -1.36501           -0.615439           -0.278031
Ar            0.821688             5.42127             3.09046             1.37251            0.114835            0.169879
Ar             6.16855             5.42247             3.84957            -2.09252           -0.528578           -0.159319
Ar            0.712801             4.62527             3.86477            -1.85829           0.0167121            0.151574
Ar             6.11755             4.69199             4.67282            -3.27018             1.77071            0.770747
Ar            0.699175             5.40322              4.6008            -3.37205           -0.628859          0.00162592
Ar           0.0135131             5.43314             5.43793            0.403001            0.730705            0.352376
Ar            0.729207             4.61979             5.36253            -1.76824          -0.0282365           -0.135905
Ar             1.58384             6.10078            0.100085             1.68999            -3.76353             4.68696
Ar             2.27402            0.744518             6.08913            -1.13897            -1.22748            -3.00786
Ar             1.58328            0.741321            0.717521            0.855873            -1.46605             -1.3819
Ar             2.28381              6.1377            0.724222           -0.145813           -0.296352           -0.849828
Ar             1.55221           0.0668517             1.57853            0.730816             1.90288             0.78147
Ar             2.30871            0.798178             1.55803           -0.275863            0.977856            0.364646
Ar             1.56296            0.835165             2.36234            0.742901             1.41766             1.03878
Ar             2.31832             6.14941             2.28038            0.197123          -0.0489305           -0.881775
Ar             1.53891             6.14605             3.09848            0.336095           -0.481147           0.0931011
Ar             2.27853            0.741363             3.13351           -0.695258            -0.89568             1.02597
Ar             1.52461            0.800107             3.87064           -0.163916            0.654763            0.471624
Ar             2.31629             6.14171             3.92978           -0.125611            -1.61602             1.65332
Ar             1.53571             6.15496             4.58251            0.078383            0.105861           -0.786315
Ar             2.34149            0.719942             4.63694            0.677394            -2.17698             0.93793
Ar             1.52396            0.742722             5.44713           -0.177283           -0.625322            0.721479
Ar             2.37206            0.140484             5.35705             2.42615             4.82008           -0.778586
Ar             1.58018             1.56925           0.0175198            0.999354             0.84574             1.23433
Ar             2.26636             2.35446             6.11178            -1.36112             1.01787            -1.10149
Ar             1.56468             2.33481            0.760578            0.554358            0.470339           -0.128264
Ar             2.36338             1.54789            0.681168             1.22359           0.0136401            -2.23962
Ar             1.58089             1.50666             1.53191            0.573429           -0.335977           -0.295484
Ar             2.31128             2.36277             1.59557           -0.181224             1.40594             1.64298
Ar             1.54032             2.37118             2.28026            0.195904             1.22176           -0.858695
Ar             2.32405             1.60733             2.36808           0.0576887             1.47158              1.4094
Ar             1.58835             1.58592               3.057            0.938263            0.977666          -0.0627632
Ar             2.35337              2.3023             3.10047             1.06098          -0.0460021            0.518619
Ar             1.60209             2.31973             3.89131             1.41263           0.0924241            0.703248
Ar             2.34999             1.57704             3.90904            0.784098            0.837521             1.19938
Ar             1.59792             1.51507             4.62609            0.924627           -0.312109            0.248673
Ar             2.34099              2.3131              4.6028            0.804286             0.18007           -0.257123
Ar             1.49887             2.34793             5.45719           -0.869179            0.677324             1.54354
Ar             2.33735               1.537             5.39192            0.482535           -0.169834           -0.262129
Ar             1.57377             3.09024             6.13622            0.494219             0.72656            -1.94685
Ar             2.35387             3.89158            0.110699            0.596177            0.618286             3.73344
Ar             1.58685             3.82632             0.67389            0.374233           -0.552123            -2.70063
Ar             2.35746             3.13025            0.728852             1.36109            0.359878           -0.614655
Ar             1.59607             3.07118             1.58138            0.924107            0.339595            0.632484
Ar             2.37676             3.83786             1.53237             1.56799           -0.534744           -0.387443
Ar             1.59925             3.85808             2.31819             1.24427           0.0502686            0.185981
Ar             2.33751             3.06607             2.28672             1.08266           -0.406085            -0.17057
Ar               1.526             3.09398             3.13615           -0.166222            0.116352            0.790524
Ar             2.34059             3.92331             3.06101             0.55874             1.52818           -0.628244
Ar              1.5903             3.85998             3.90437             1.15749          -0.0800371              1.2466
Ar             2.34908             3.13949             3.85559            0.949217             0.88887           -0.142344
Ar             1.54649             3.11564              4.6018            0.218685            0.507106           0.0608371
Ar             2.30024             3.87982             4.66274            -0.33868             0.45274             1.02211
Ar             1.56565              3.8344             5.37168            0.493777           -0.560034           -0.533212
Ar             2.29517             3.12807             5.36364           0.0764542            0.376066           -0.889326
Ar             1.56217             4.67115           0.0447569            0.636926             1.10444             2.95369
Ar             2.28894             5.36025            0.125761           -0.189958            -1.90149             4.17781
Ar             1.49928             5.41996            0.784237           -0.643502           -0.520058            0.172641
Ar             2.36794             4.62832            0.762841             1.45883           -0.105353            0.217633
Ar             1.59982             4.62199             1.55189             1.01087           -0.145971            0.151023
Ar             2.29941             5.45838             1.55702           -0.272556            0.972439            0.104724
Ar             1.54307             5.43395             2.29313            0.127872            0.550384           -0.391253
Ar             2.28821             4.65119             2.36921           -0.431128            0.838245             1.15234
Ar             1.59596             4.66366             3.11283            0.852684             0.78894            0.732021
Ar             2.35274             5.36463             3.12204             1.00359             -0.8494             0.66811
Ar             1.56422             5.37969             3.91754            0.548781            -1.24545             1.08843
Ar             2.33125             4.62415             3.89845            0.327281         -0.00751301             1.02726
Ar             1.56278             4.62989             4.59094            0.248688           0.0946388           -0.389379
Ar              2.3299             5.34956             4.66007            0.781074             -1.2919            0.788251
Ar             1.59078             5.45697               5.554            0.804086            0.365753             6.77865
Ar             2.29809             4.61923             5.48199            0.171318           -0.333241             2.13021
Ar             3.10297             6.12965             6.08052             0.48538             -1.3665            -2.82176
Ar             3.80667            0.782412           0.0939978            -1.55199           0.0150622             2.14917
Ar             3.09056            0.738938            0.721617           -0.513289           -0.835149            -0.55105
Ar             3.88039             6.10672            0.850698            0.635715            -3.56477             2.16453
Ar               3.136             6.09234             1.60924             1.32457            -4.89501             1.46333
Ar             3.84105            0.688183             1.54731           -0.293739            -3.50129            0.726984
Ar              3.1401            0.716386             2.32361              1.0673            -2.17111            0.488591
Ar             3.90853           0.0668973             2.28467             1.56186            0.879013          -0.0309949
Ar             3.09803           0.0223792             3.04516            0.299488            0.663384           -0.456362
Ar              3.9236            0.758562             3.09319             1.52496            0.447382            0.449051
Ar             3.09619            0.751329             3.86083            0.608552            -0.80788          -0.0250083
Ar             3.82563           0.0803755             3.82571           -0.383132             1.32693           -0.378157
Ar             3.09763             6.15766             4.66309            0.700313           -0.339459            0.703574
Ar             3.80296             0.77858             4.69906            -1.42916            0.987078             1.94905
Ar             3.08433            0.685701             5.36696            0.881142            -3.01403            -0.26891
Ar             3.87527             6.17538              5.3602            0.802262            0.327781           -0.954228
Ar             3.12845             1.55075           0.0353706            0.770013            0.466793              1.8011
Ar             3.87078             2.32252             6.08771            0.203923            0.299588            -2.03393
Ar             3.16037             2.38717            0.820852              1.8182             1.94429             1.51989
Ar             3.93374             1.53829            0.810236             1.96319            0.209053             1.11284
Ar             3.12728             1.50907             1.57322            0.691279           -0.311132            0.578369
Ar             3.85233             2.36315             1.57166          -0.0149341             1.07029            0.794202
Ar             3.05668              2.3496             2.28909           -0.105721            0.671889           -0.455935
Ar             3.88405             1.49587             2.29241            0.864992            -0.87364           -0.452367
Ar             3.13705             1.60294             3.15575             1.39995              1.2708             1.67035
Ar             3.87347              2.3435             3.13644            0.302635            0.748992              1.0886
Ar              3.0836             2.31346             3.84604              0.2892            0.244617           0.0797351
Ar             3.82824             1.57845             3.86068           -0.248562            0.390192            0.579994
Ar             3.13043              1.5537             4.64065            0.824169             0.44749            0.422701
Ar             3.87799             2.30711             4.65531            0.387879           0.0581595            0.714818
Ar             3.13711             2.37561             5.38876            0.558811             1.47597            -1.08122
Ar             3.86137             1.50847             5.36736            0.322414           -0.433742           -0.521916
Ar             3.07956             3.10212           0.0148031               0.104            0.260273            0.633637
Ar             3.91506             3.90707           0.0786669             1.21615             1.01847             2.48897
Ar             3.07471             3.88115            0.816146            0.576641            0.414761            0.947368
Ar             3.83658             3.07094            0.794557          -0.0836561            0.295151            0.251059
Ar               3.053             3.08501             1.53175           -0.288094            0.161494           0.0122866
Ar             3.87662             3.82421             1.52342            0.280325           -0.571726           -0.102374
Ar              3.1428             3.88758             2.30937              1.1354            0.685161          -0.0518083
Ar             3.87351             3.09081             2.34681            0.308161           0.0958753            0.669823
Ar             3.08173             3.10119             3.10381            0.157364            0.542226            0.308743
Ar               3.819             3.82602             3.16036           -0.982438           -0.631977             2.02842
Ar             3.12143             3.83676             3.85845            0.553828           -0.298405            0.280678
Ar             3.87102             3.08911             3.84951            0.515531            -0.20016            0.104872
Ar              3.1332             3.06298             4.67518            0.728741          -0.0233197            0.465987
Ar               3.927             3.88567             4.68089              1.5187             0.41845            0.962789
Ar             3.06987             3.90707             5.37328           0.0112409             1.02724            -1.15015
Ar             3.89719              3.1164             5.43922             1.03997            0.629552            0.304649
Ar             3.06235              4.6332           0.0107164            0.148268             0.43646            0.159175
Ar             3.88408             5.41443           0.0404008            0.843756           -0.595912             1.51826
Ar             3.10209             5.35462            0.745823             0.62697           -0.983344           -0.136162
Ar             3.87737             4.69169            0.757714            0.764534              1.0696           0.0361867
Ar             3.13966             4.59975             1.53907            0.873904          -0.0977393            0.215096
Ar             3.87256             5.40437             1.52845            0.686755           -0.668643           0.0667714
Ar             3.07269             5.37566             2.35162            0.152914           -0.661901            0.659744
Ar             3.83293             4.66765             2.34581           -0.246008            0.482264            0.889077
Ar             3.10942             4.61615             3.07968            0.482336           -0.280961            0.274398
Ar             3.88781             5.43333             3.08718            0.768867            0.709368           0.0885252
Ar             3.11034             5.46859             3.88355            0.546053             1.34796              0.3428
Ar             3.83518             4.63759             3.83549           -0.249437            0.199825           -0.174565
Ar             3.09691              4.6872             4.66132            0.608214             1.21389            0.722566
Ar             3.87704             5.34819              4.6251            0.587209            -1.19336           -0.228875
Ar              3.0646             5.35809             5.40979           -0.251404            -0.97203            0.574453
Ar             3.82434             4.61522             5.46493           -0.325106            -0.25658             2.47466
Ar             4.63218           0.0968578             6.12534            0.379295             5.01179            -3.48769
Ar             5.44317            0.743148             6.09732            0.302714           -0.341453            -3.55289
Ar             4.66013            0.755502            0.731558            0.651786           -0.120856            -2.01577
Ar             5.45144           0.0560513            0.648019            0.510407              4.1265             -4.6973
Ar             4.62048             6.17703             1.52332            0.516569           -0.569955           -0.112616
Ar             5.36653            0.674947             1.59853            -1.04816            -3.06449             1.69498
Ar             4.66135            0.808753             2.30865            0.802095            0.716442            0.225294
Ar             5.39854           0.0231604             2.28809           -0.532242            0.955719          -0.0500325
Ar             4.64142          0.00345288             3.05715            0.700285             1.32983           -0.526556
Ar             5.34951            0.756823             3.07246            -1.18467           -0.612164           0.0634489
Ar             4.63872            0.765476             3.87097            0.521565            0.788248             0.50422
Ar             5.36053             6.17876             3.82276            -1.00186            0.683927           -0.338883
Ar             4.69465             6.09549             4.63434             1.24728            -3.98055            0.139143
Ar             5.35027            0.701036             4.60037            -1.01448             -3.4581           -0.107028
Ar              4.6374            0.695643             5.38361            0.179197            -2.47127           -0.974179
Ar             5.45897             6.17839             5.41159             1.40932            0.320363            -1.40641
Ar             4.61074             1.52412          0.00118077           -0.213625           -0.192419           -0.280574
Ar             5.41767             2.28837           0.0320817            0.277496           -0.752881             1.13154
Ar             4.65783             2.26444             0.75605            0.361979           -0.859553            0.061508
Ar             5.48124             1.52267            0.680583             2.11214           -0.639124            -2.28851
Ar             4.59912             1.55814             1.52084          -0.0446781            0.246144          -0.0471542
Ar             5.42342             2.27286              1.6058          -0.0960348           -0.862165             1.41637
Ar             4.65041             2.29654              2.3053            0.297315           -0.373349          -0.0359911
Ar             5.45475             1.59046             2.33881            0.686356            0.673595              0.6219
Ar             4.63543             1.51699             3.09483            0.132297           0.0496913            0.257248
Ar             5.39623              2.3215             3.10705           -0.368021             0.26576            0.491827
Ar             4.68987             2.28392             3.85377            0.940813           -0.558369            0.161511
Ar             5.43284             1.52087             3.82277           -0.316942           0.0794537            -0.41846
Ar               4.642             1.54437              4.6462            0.366686            0.110742            0.191028
Ar             5.40355             2.33672             4.65052           -0.544482              0.6534            0.386415
Ar             4.63975             2.31999             5.41063            0.334475            0.226542           0.0661819
Ar             5.41185             1.53789              5.3981            0.207928           -0.198079             0.37145
Ar             4.66359              3.0726             6.17093            0.748139           -0.111262           -0.395661
Ar             5.46192             3.84979           0.0570948             1.49501            0.477744             1.87289
Ar              4.6833             3.90219            0.739589             1.07048             1.05701           -0.540407
Ar             5.49218             3.09558            0.792437             1.75523           -0.205971             2.26417
Ar              4.6769             3.05651             1.54421            0.691355           -0.429874          -0.0503853
Ar             5.50885              3.8504             1.50531             3.55889           0.0656799           -0.823525
Ar             4.62182             3.90138             2.29714           0.0442056            0.985802           -0.341524
Ar             5.48534              3.0694              2.3655             1.92387           -0.406417            0.695785
Ar             4.62173             3.07717             3.12845           0.0335847          -0.0163003            0.551181
Ar             5.43533              3.9074             3.06006           -0.443677              0.7509           -0.497818
Ar             4.65778             3.88031             3.88166            0.784964            0.380483            0.522154
Ar             5.40081             3.13526             3.88694           -0.058326            0.681556            0.535783
Ar               4.588             3.06211             4.64151           -0.558697           -0.415959           0.0527932
Ar              5.4298             3.87402             4.64665            0.921647            0.360116            0.413217
Ar             4.65331             3.91832             5.41963            0.653053             1.20586            0.244939
Ar             5.38605             3.08765             5.40329           -0.200565          -0.0242736            0.258872
Ar             4.64368             4.68533            0.064933             0.60661             1.39913             2.42967
Ar             5.33682             5.54461           0.0255872            -2.51174             7.63881             2.76698
Ar              4.6046             5.41394            0.741581           -0.069122            0.164048           -0.254878
Ar             5.41283             4.60784            0.807874            0.702886          -0.0964373            0.554548
Ar             4.61655             4.67882             1.55505           -0.146539            0.734891            0.298686
Ar             5.48767             5.39053             1.57323             3.49317           -0.124881            0.490899
Ar             4.66481             5.44818             2.32305            0.526645             1.57407            0.191119
Ar             5.36263             4.62145             2.34016            -1.09243          0.00569017            0.375972
Ar             4.64139             4.67243             3.05537            0.101083            0.681006           -0.111214
Ar             5.42742             5.42897             3.07381            0.160938          -0.0427184           -0.298916
Ar             4.62671             5.36286             3.86807         -0.00725511            -1.19349            0.112907
Ar             5.41382              4.6486             3.83335          -0.0279702            0.452481           -0.171595
Ar             4.68188             4.59944             4.63413            0.876815          -0.0849611          -0.0329934
Ar             5.45026             5.35254             4.64102            0.193604            -1.03481           0.0845106
Ar             4.65795             5.48418              5.5742          -0.0936979             3.78133             9.07706
Ar             5.41662             4.62001             5.50778            0.564359            -0.17031             3.28008
