256
Position of argon atoms in fcc cell after one integration
Ar            0.191172           0.0941486             6.05455             11.7596             3.86648            -7.86511
Ar            0.784316            0.793762           0.0449045            0.523683             1.42149            -1.33304
Ar            0.112113            0.836771            0.829009             4.16424             1.81371             1.36889
Ar            0.829142             6.14858             0.76643             1.54245           -0.811628            0.272847
Ar           0.0689909             6.13065             1.52467             1.62693            -1.32715            -0.22072
Ar            0.815513            0.748244             1.60185              1.7018           -0.662367             1.40685
Ar             6.17363            0.835059             2.29887          -0.0218481             1.39616           -0.474786
Ar            0.776724             6.11091             2.31671            0.252736            -1.92657           0.0708074
Ar             6.07956             6.12883             3.10245            -3.73869            -2.22924            0.357439
Ar            0.787384            0.756953             3.09394            0.493358         0.000612855           0.0300762
Ar             6.12138            0.824726             3.88732            -1.34156             1.36056            0.404676
Ar            0.780846             6.11295              3.9151            0.796651             -2.3846             1.47852
Ar             6.08475             6.07537             4.61024            -5.23943            -3.79906           -0.504119
Ar            0.744259            0.701093             4.66493           -0.597153            -2.02641             1.06625
Ar              6.1579            0.729768             5.42207              2.5665           -0.571981           -0.119836
Ar            0.718845           0.0678721             5.40139            -1.53404            0.931541           -0.824004
Ar           0.0553869             1.57793             6.07932             1.85167             1.13652            -3.95649
Ar            0.787861             2.28523           0.0852732            0.232136           -0.952745             1.89002
Ar           0.0990739             2.31792            0.796777             2.93344          -0.0424716            0.885789
Ar            0.792843             1.57798            0.754705            0.825816             0.47178          -0.0599376
Ar             6.17167             1.53313             1.54497             1.47698            0.350114            0.213116
Ar            0.716845             2.31659             1.59183            -1.88735            0.317739             1.85859
Ar           0.0912526              2.3323             2.31166             2.28667            0.538277            0.338193
Ar            0.799188             1.57426             2.35417            0.665747            0.645094             1.03739
Ar             6.14891              1.5139             3.10953           -0.824287           -0.298369            0.445601
Ar            0.814065             2.28293             3.08629            0.950075            -0.62527            0.247601
Ar            0.055515             2.36642             3.81814            0.990363             1.43832           -0.993821
Ar            0.809308              1.5657             3.87363            0.707549            0.411207            0.451295
Ar             6.09214             1.58616             4.69347            -3.67098             1.12657              1.5306
Ar            0.803532             2.31438             4.58574            0.725995            0.290296            -1.05349
Ar            0.042056             2.31552             5.43859            0.291164            0.452273            0.485557
Ar            0.735646              1.4931             5.44234           -0.701499             -1.0918            0.699126
Ar               6.066             3.13625            0.111286             -8.0679             1.82133             4.12743
Ar            0.688918             3.83356             6.11636            -3.04419           -0.429078            -2.93679
Ar            0.029812             3.81724            0.747025            -1.27224           -0.732678           -0.995575
Ar             0.76506             3.12095            0.822544           -0.303222            0.636885             1.13913
Ar            0.092225              3.1218             1.54958             3.36438             1.13287            0.679381
Ar            0.769878             3.84652             1.58013            0.266403           0.0629115             1.05214
Ar             6.13602             3.83041             2.33627            -1.39705           -0.772232            0.657652
Ar            0.752001             3.06153             2.29187           -0.133065            -0.34378          -0.0489509
Ar           0.0644167             3.08157             3.11452             1.79148            0.317063            0.427701
Ar            0.743241               3.819             3.12605          -0.0884287            -0.77105            0.911716
Ar             6.12928             3.88428             3.86224            -1.69991            0.501321            0.059556
Ar            0.745251             3.08617             3.91322           -0.443009            0.274015             1.30462
Ar           0.0412008             3.13908             4.64127             0.96283              1.3486            0.693633
Ar            0.734977             3.88806             4.66398           -0.893094            0.924812             1.17653
Ar           0.0527116             3.83788             5.35517             1.72051           -0.315234           -0.792369
Ar            0.727762             3.05957             5.42362           -0.400895           -0.791155            0.284894
Ar           0.0542094             4.60978           0.0285565             1.47075           -0.255728            -0.18195
Ar            0.783299             5.44333             6.15144            0.746986             1.63752            -1.00598
Ar           0.0312516             5.33449            0.812446             1.57832            -2.02263             1.23322
Ar            0.746155             4.62051            0.816943           -0.372568           -0.224992             1.25485
Ar           0.0467965             4.64187             1.58157             1.50608            0.433803             1.16644
Ar             0.73474              5.4043             1.55109            -0.40859           -0.451931            0.632736
Ar           0.0709913             5.36468             2.30925             2.19967            -1.14374            0.236163
Ar            0.795177             4.67367             2.30016            0.952122            0.578863          -0.0902935
Ar             6.12666             4.61597             3.07153            -1.25696            -0.53117           -0.290669
Ar            0.815136             5.42063             3.08969             1.20505            0.137892             0.13531
Ar              6.1787             5.42463             3.85036            -1.91148           -0.323711           -0.152788
Ar             0.72151             4.62528             3.86404            -1.57015          -0.0229518            0.135718
Ar              6.1321             4.68363             4.66893            -2.47858             1.52698            0.758262
Ar            0.714193             5.40598             4.60128            -2.54865             -0.4591            -0.18347
Ar           0.0110398             5.43005             5.43616            0.559588            0.508907            0.347228
Ar            0.737704             4.62019             5.36381            -1.57038           -0.124186           -0.355922
Ar             1.57618             6.11815           0.0790218             1.34334            -3.09178             3.66244
Ar             2.27951            0.750128             6.10345            -1.02394           -0.987837            -2.63886
Ar             1.57901            0.748117            0.724299            0.823083            -1.21412            -1.28181
Ar              2.2851             6.13955            0.728705           -0.348151           -0.427888           -0.902789
Ar             1.54893           0.0577101             1.57466            0.565073             1.69737            0.739682
Ar             2.30999            0.793471             1.55621           -0.227388            0.874781            0.350029
Ar             1.55942            0.828097             2.35722            0.650694             1.36217            0.977107
Ar             2.31742             6.15005             2.28467            0.156177           -0.197275            -0.80803
Ar             1.53744             6.14851             3.09794            0.243668            -0.48869            0.118915
Ar             2.28206            0.745647             3.12842           -0.692638           -0.792646             0.97347
Ar              1.5255            0.796925             3.86844           -0.187742            0.598537            0.395709
Ar             2.31681             6.14924             3.92166          -0.0826814            -1.35015             1.54126
Ar             1.53542             6.15477             4.58665           0.0382262          -0.0284047           -0.839681
Ar             2.33822            0.729915              4.6331            0.610195             -1.7653            0.592788
Ar             1.52488            0.745969             5.44337           -0.184342           -0.650202            0.762287
Ar             2.36134            0.117568             5.36118             1.83122             4.20988            -0.83777
Ar             1.57535             1.56516           0.0120366            0.903263            0.763667            0.934328
Ar             2.27292             2.34955             6.11774             -1.2248            0.916226            -1.23957
Ar             1.56197             2.33251            0.761278            0.512499            0.432475           -0.149679
Ar             2.35748             1.54777            0.692279             1.10101           0.0358127            -2.12917
Ar             1.57786             1.50858             1.53332            0.615082           -0.419596           -0.260517
Ar             2.31211             2.35609             1.58776           -0.147549             1.22777             1.43767
Ar             1.53944             2.36517             2.28445            0.148362             1.14374           -0.793004
Ar             2.32365             1.60007             2.36127           0.0968911              1.3817             1.27145
Ar             1.58363             1.58107             3.05768            0.914722            0.928076           -0.201238
Ar             2.34824             2.30269             3.09807            0.959671           -0.106177            0.429442
Ar             1.59514             2.31927             3.88784             1.32143           0.0880158            0.661936
Ar              2.3461             1.57294             3.90319            0.747273            0.774879             1.10363
Ar             1.59317             1.51675             4.62506            0.942358           -0.349906            0.155898
Ar             2.33714             2.31235             4.60433            0.711017            0.114507           -0.340511
Ar              1.5032             2.34458             5.44972           -0.834929             0.64125             1.39367
Ar             2.33492             1.53787             5.39328            0.473438           -0.171789           -0.273522
Ar             1.57115             3.08707             6.14521             0.53347            0.527716            -1.59573
Ar             2.35063             3.88845           0.0926544             0.66852            0.608187              3.3754
Ar             1.58446              3.8292            0.687083             0.55442           -0.577311            -2.49008
Ar             2.35095             3.12808            0.732025             1.20249            0.485874           -0.627901
Ar             1.59134             3.06993             1.57806            0.937906            0.155356            0.668132
Ar             2.36916             3.84046             1.53417              1.4263           -0.491078           -0.322707
Ar             1.59306             3.85791             2.31734             1.19112            0.019143            0.150083
Ar             2.33249             3.06819             2.28787            0.897782           -0.425896           -0.279278
Ar             1.52693             3.09338             3.13208           -0.200213            0.118328            0.807238
Ar             2.33783             3.91586             3.06408            0.526834              1.4068           -0.580745
Ar             1.58459             3.86034             3.89836              1.0871          -0.0628924             1.11904
Ar             2.34449             3.13496             3.85625            0.857068            0.891492           -0.120422
Ar             1.54549             3.11306             4.60189            0.175707            0.506312          -0.0950807
Ar             2.30191             3.87756             4.65792           -0.321435            0.436652            0.878605
Ar             1.56317             3.83719              5.3745            0.478111           -0.537792           -0.574682
Ar             2.29506             3.12593             5.36808          -0.0320721            0.461708           -0.857062
Ar             1.55917             4.66591           0.0314765            0.547576            0.963717             2.28793
Ar             2.29018             5.36911            0.105676           -0.291979            -1.59241             3.73528
Ar             1.50264              5.4219             0.78358           -0.678589           -0.252182           0.0971812
Ar             2.36091              4.6288            0.762128             1.30987          -0.0880778           0.0719454
Ar             1.59469             4.62276             1.55112             1.00817           -0.158103            0.153834
Ar             2.30081             5.45343             1.55636           -0.278054            0.971326            0.153448
Ar             1.54254             5.43113             2.29513           0.0819611            0.556127           -0.392746
Ar             2.29041             4.64732             2.36347           -0.434184            0.689925             1.10397
Ar             1.59155             4.65981             3.10932            0.881698            0.725174            0.649056
Ar             2.34787             5.36902             3.11869            0.915757           -0.875591            0.648424
Ar             1.56157             5.38553              3.9121            0.494259            -1.05567             1.05325
Ar             2.32959             4.62428             3.89346            0.323459          -0.0462223            0.936271
Ar              1.5614             4.62948             4.59321             0.29391           0.0674364           -0.503428
Ar             2.32629             5.35591             4.65627            0.640235            -1.20472            0.708537
Ar             1.58676             5.45454             5.52342            0.780168            0.581951             5.32998
Ar             2.29752              4.6209             5.47131           0.0571633           -0.324275             2.05868
Ar             3.10061             6.13615             6.09435            0.439953            -1.20148            -2.61881
Ar             3.81403            0.782198           0.0832372            -1.35271           0.0675013             2.08967
Ar             3.09263            0.742996            0.724851           -0.308199           -0.763025           -0.712397
Ar             3.87738             6.12363            0.840234            0.549621            -2.97919             1.95602
Ar             3.12963             6.11518             1.60198             1.18769            -4.09282             1.39455
Ar             3.84259            0.704853             1.54419           -0.311818            -3.00789            0.507448
Ar             3.13477            0.726746              2.3214             1.02811            -1.90503            0.383818
Ar             3.90112           0.0618641             2.28529             1.35805             1.11306           -0.208749
Ar             3.09656           0.0192007             3.04773            0.279246            0.589992            -0.55299
Ar              3.9161            0.756248             3.09116             1.42524            0.394501            0.349927
Ar             3.09341            0.755163             3.86093            0.485175           -0.701558          -0.0175678
Ar             3.82779           0.0732044             3.82782           -0.463237             1.48743           -0.450643
Ar             3.09443             6.15907             4.65965              0.5604           -0.230156             0.65373
Ar             3.80989            0.774277             4.68978            -1.30061            0.715719             1.70919
Ar             3.08101            0.699896             5.36874            0.460098            -2.57815           -0.423848
Ar             3.87162             6.17396              5.3651            0.640355             0.22997           -0.970471
Ar              3.1246             1.54858           0.0265896            0.747471            0.390592             1.64928
Ar             3.86976             2.32114             6.09817            0.195421            0.244431            -2.08004
Ar             3.15158             2.37787            0.813569             1.64691             1.72009             1.34872
Ar             3.92427             1.53742            0.804999             1.76954            0.134566            0.951214
Ar             3.12378             1.51079              1.5703            0.684138           -0.364511            0.570268
Ar             3.85251             2.35785             1.56782          -0.0521155              1.0144            0.718196
Ar             3.05755             2.34621             2.29144           -0.233406            0.659887           -0.466802
Ar             3.87994             1.50028             2.29467            0.754606           -0.862576           -0.438578
Ar             3.13032             1.59667             3.14765             1.24912             1.19859             1.51861
Ar             3.87199             2.33989             3.13107            0.280353            0.673331             1.02532
Ar             3.08236             2.31246              3.8459             0.19948            0.150498          -0.0233683
Ar             3.82975             1.57631             3.85816           -0.342275            0.447394            0.415427
Ar             3.12627             1.55158             4.63869            0.811347             0.38718            0.349939
Ar             3.87607             2.30697             4.65188            0.368292        -0.000531485             0.63506
Ar             3.13403             2.36841             5.39362            0.650923             1.35973           -0.832933
Ar              3.8599             1.51087             5.37014            0.258428           -0.505575           -0.569243
Ar              3.0792             3.10078           0.0111101           0.0371109            0.267928            0.818005
Ar             3.90906             3.90205           0.0664406             1.14327            0.958806             2.31945
Ar             3.07239             3.87909            0.811483            0.344192            0.397891            0.888308
Ar             3.83733             3.06994            0.793294           -0.208232            0.105294            0.246063
Ar             3.05473             3.08434             1.53181           -0.387967            0.100973           -0.036073
Ar             3.87519             3.82717             1.52411            0.281635           -0.592823           -0.169276
Ar             3.13711             3.88425             2.30967             1.10255            0.623159          -0.0647108
Ar             3.87197             3.09036             2.34348             0.29608           0.0794564            0.640792
Ar             3.08112             3.09864             3.10225           0.0828177            0.459969              0.3029
Ar             3.82379             3.82922              3.1506           -0.904341           -0.627707             1.81619
Ar             3.11851             3.83839             3.85729            0.590809           -0.340724            0.177121
Ar              3.8686             3.08999             3.84921            0.435469           -0.145514           0.0170198
Ar             3.12945             3.06342             4.67254            0.746564           -0.146434            0.569799
Ar              3.9195             3.88351             4.67607             1.43043            0.430573            0.931089
Ar             3.07004             3.90197              5.3787          -0.0755199            0.980468            -0.98281
Ar             3.89211             3.11333             5.43756            0.956173            0.578469            0.343033
Ar             3.06203             4.63125          0.00991112          -0.0193934             0.33235            0.162896
Ar             3.88016             5.41715           0.0337898            0.703634           -0.474583             1.12053
Ar             3.09921             5.35963             0.74686            0.512075           -0.988098           -0.267729
Ar             3.87383             4.68626            0.757758            0.631361             1.06413          -0.0510087
Ar             3.13521             4.60057             1.53816            0.878898           -0.222531             0.14496
Ar             3.86942             5.40722             1.52843            0.551926           -0.440283          -0.0523636
Ar             3.07218             5.37884             2.34832           0.0487692           -0.592726             0.64144
Ar             3.83432             4.66513             2.34152            -0.30349            0.506253            0.798723
Ar             3.10704              4.6176             3.07858            0.454341            -0.29118            0.162069
Ar             3.88405             5.42942             3.08678            0.708204            0.782903           0.0655834
Ar             3.10767             5.46182             3.88175             0.50525             1.31442            0.363386
Ar             3.83657             4.63669             3.83657           -0.297887            0.152463           -0.247477
Ar             3.09415              4.6812              4.6578            0.481475             1.14622            0.662546
Ar             3.87427             5.35422             4.62621            0.504556            -1.17865            -0.20858
Ar             3.06601             5.36294             5.40715           -0.301275           -0.934558            0.468526
Ar             3.82619             4.61658             5.45334           -0.402768           -0.277306             2.09177
Ar             4.63058           0.0755611             6.14036            0.254343             3.48898            -2.48021
Ar             5.44112            0.746004             6.11382            0.502787           -0.727797            -2.96949
Ar             4.65692            0.756285            0.740876             0.61156           -0.174414            -1.66137
Ar             5.44836            0.039263            0.669735            0.696514             2.62225            -3.89308
Ar             4.61843         0.000667158             1.52405            0.294838           -0.404379           -0.175234
Ar              5.3716            0.688872             1.59056           -0.950853            -2.53702             1.45302
Ar             4.65745            0.805121             2.30779            0.734176             0.70379            0.115885
Ar             5.40092           0.0181377             2.28882           -0.406278            0.970083           -0.226823
Ar             4.63822             6.17681             3.05986            0.561632             1.00066           -0.540553
Ar             5.35553            0.760142             3.07239            -1.18077            -0.61768          -0.0358072
Ar             4.63634            0.761979             3.86863            0.416227            0.592147            0.418318
Ar              5.3654             6.17597             3.82479           -0.914983            0.465987           -0.453542
Ar             4.68843             6.11403             4.63367             1.20189             -3.3243            0.124438
Ar              5.3555            0.717075              4.6013            -1.04171            -2.86118           -0.252621
Ar             4.63654            0.707762             5.38808            0.157228            -2.28643           -0.795694
Ar               5.452         0.000312699             5.41773             1.32828           -0.619412            -1.01213
Ar             4.61193             1.52517          0.00253408           -0.252876           -0.222491           -0.249518
Ar             5.41614             2.29194           0.0267092            0.319793           -0.657395            0.982784
Ar             4.65594             2.26888            0.756035            0.381584           -0.886037          -0.0549806
Ar             5.47073              1.5257            0.692076             2.01699           -0.557824            -2.22479
Ar             4.59975             1.55686              1.5214           -0.202252            0.260028           -0.166549
Ar             5.42361             2.27714             1.59884           0.0423107           -0.825234              1.3244
Ar             4.64886             2.29843             2.30559            0.308459           -0.369373           -0.078003
Ar             5.45114             1.58693             2.33581             0.74499             0.71683            0.562284
Ar             4.63481             1.51703             3.09362            0.109183          -0.0705425            0.220599
Ar             5.39785             2.32026             3.10466           -0.271013            0.224196            0.448115
Ar             4.68503             2.28675             3.85315            0.962835            -0.55786           0.0835806
Ar             5.43385             1.52082             3.82508          -0.0869855          -0.0565374           -0.490919
Ar             4.64026             1.54383             4.64522            0.316428            0.102331            0.195441
Ar             5.40585             2.33366             4.64861           -0.366532            0.556187            0.365513
Ar             4.63822             2.31894              5.4103            0.268355            0.186275           0.0602217
Ar             5.41074             1.53889             5.39657            0.225445           -0.193851            0.234402
Ar              4.6599             3.07324             6.17305            0.703844           -0.141714           -0.438128
Ar             5.45456             3.84847           0.0479264             1.39744           0.0908162             1.72741
Ar             4.67799             3.89706            0.742393             1.01869            0.962488           -0.559717
Ar             5.48225             3.09624            0.783924              2.0707          -0.0708941             1.22392
Ar             4.67333             3.05877             1.54444            0.711958           -0.458053          -0.0384014
Ar             5.49203             3.85024             1.50941             3.07803         -0.00139517           -0.787718
Ar             4.62175             3.89654             2.29888          -0.0147085            0.915739           -0.339748
Ar             5.47568             3.07135             2.36183               1.872            -0.36323            0.746525
Ar             4.62173             3.07737             3.12553          -0.0326491          -0.0619014            0.595197
Ar             5.43687              3.9035             3.06261           -0.167387            0.782512           -0.503019
Ar             4.65398              3.8784              3.8791            0.711745            0.368336            0.486173
Ar             5.40097             3.13168             3.88426         -0.00752852            0.724689            0.521202
Ar             4.59102             3.06427             4.64119           -0.627368           -0.431396           0.0740159
Ar             5.42535             3.87225             4.64467            0.829044            0.334624            0.365573
Ar              4.6502              3.9123              5.4183            0.573151             1.16037            0.276177
Ar             5.38702             3.08781             5.40192           -0.183229          -0.0386106            0.281249
Ar             4.64088             4.67858           0.0536433            0.497554             1.26048             2.02612
Ar             5.34836               5.511           0.0147508            -2.05212             5.72114             1.61289
Ar             4.60531               5.413            0.743285           -0.205787            0.194006           -0.407458
Ar             5.40952              4.6086            0.804998             0.60019           -0.203409            0.576524
Ar              4.6174             4.67502             1.55357           -0.187915            0.765408            0.281473
Ar              5.4714              5.3912              1.5707             2.92545           -0.130621            0.501931
Ar             4.66212              5.4412              2.3221            0.530528             1.23954            0.184913
Ar              5.3679             4.62162              2.3382           -0.980881          -0.0717996            0.394226
Ar             4.64082             4.66892             3.05625            0.123592            0.694236           -0.234868
Ar             5.42596             5.42872             3.07527            0.397576            0.143191           -0.277565
Ar             4.62689             5.36863             3.86747          -0.0608883            -1.08548            0.121764
Ar             5.41375             4.64641             3.83442           0.0509803            0.409239           -0.251188
Ar             4.67742             4.60021             4.63428            0.875329           -0.214866          -0.0247398
Ar             5.44823             5.35765             4.64057            0.571278           -0.985355           0.0921467
Ar             4.65785             5.46749               5.535            0.119014             2.85479             6.54705
Ar             5.41393             4.62103             5.49191            0.493371           -0.226332             2.96758
