256
Position of argon atoms in fcc cell after one integration
Ar            0.140725            0.076637             6.08629             8.41342             3.07595            -4.98974
Ar            0.782069            0.787321           0.0474169            0.378408             1.12971            0.159677
Ar           0.0923873            0.827864            0.822224             3.60911             1.69142             1.30191
Ar            0.821665             6.15237            0.765256             1.40266            -0.69266            0.189584
Ar           0.0608061             6.13733             1.52588             1.59503            -1.30059           -0.255408
Ar            0.807349            0.751509             1.59487             1.51097            -0.62242             1.33621
Ar              6.1738            0.828063             2.30117          -0.0454354             1.35642           -0.429515
Ar            0.775517             6.12032             2.31639            0.221669              -1.774            0.056366
Ar             6.09732             6.13919             3.10072            -3.24727            -1.86266            0.325209
Ar            0.785013            0.757151             3.09372            0.438969          -0.0784056           0.0560202
Ar             6.12806            0.818013             3.88515            -1.28843             1.28199            0.448021
Ar            0.777216              6.1243             3.90793            0.642783             -2.0822             1.34575
Ar             6.10852             6.09316             4.61274            -4.12084            -3.23402           -0.476245
Ar            0.747445            0.711031             4.65993           -0.646944            -1.88315            0.906071
Ar             6.14931            0.733159             5.42213            0.977305           -0.742842           0.0799356
Ar            0.727155           0.0625544             5.40343            -1.64978             1.14517           -0.129178
Ar           0.0466347             1.57254             6.09787             1.60278            0.987223            -3.36038
Ar            0.786558             2.28977           0.0754655            0.279241           -0.835837             1.96217
Ar           0.0844673             2.31807            0.792753             2.80564          -0.0172636            0.705222
Ar            0.788956             1.57537            0.755314            0.707471            0.552306           -0.173541
Ar             6.16546             1.53178             1.54401            0.976202            0.186183             0.16225
Ar            0.725687             2.31526             1.58325            -1.60412            0.209314              1.5296
Ar           0.0796471             2.32979             2.31042             2.26973            0.452083            0.159242
Ar            0.795919               1.571             2.34912            0.620487            0.637956            0.949939
Ar             6.15291             1.51561             3.10728           -0.749357           -0.371146            0.438527
Ar            0.809373             2.28613             3.08527            0.896909           -0.635487            0.154903
Ar           0.0503026              2.3595             3.82306             1.05878             1.28668           -0.943574
Ar            0.805752             1.56359             3.87148             0.69248            0.418225            0.393106
Ar             6.10942             1.58064             4.68601            -3.13512             1.04491             1.41034
Ar            0.800004             2.31315             4.59102            0.663577            0.193736            -1.02042
Ar           0.0399884             2.31368             5.43599            0.516622            0.277214            0.533581
Ar            0.739528              1.4986             5.43861           -0.813495            -1.06984            0.764234
Ar             6.10057             3.12797           0.0920909            -5.68777              1.4602               3.471
Ar            0.703523             3.83586             6.12964            -2.69967           -0.472622            -2.31996
Ar           0.0336638             3.82124            0.751928           -0.311972           -0.829005           -0.922802
Ar            0.766561             3.11773            0.816976           -0.286088             0.62985             1.05599
Ar           0.0759318             3.11648             1.54666             3.04559            0.966878            0.477931
Ar            0.768689              3.8465             1.57497            0.202705          -0.0540712            0.975311
Ar             6.14289             3.83419             2.33311            -1.30362           -0.714683            0.584059
Ar            0.753047             3.06351             2.29251           -0.270726           -0.430394           -0.199294
Ar           0.0554547             3.08035             3.11227             1.73066            0.167866            0.457506
Ar            0.743984               3.823             3.12151           -0.202482           -0.800192            0.873401
Ar             6.13748             3.88177             3.86195            -1.52798            0.486164           0.0559542
Ar             0.74763             3.08508              3.9068           -0.490633            0.160395             1.22011
Ar             0.03627             3.13254              4.6382            0.975332             1.22638             0.51716
Ar             0.73931             3.88366             4.65851            -0.81605             0.80609             0.98101
Ar           0.0440289             3.83962             5.35947             1.68156           -0.365756           -0.895834
Ar            0.730271             3.06345             5.42198           -0.580697           -0.733743            0.359322
Ar           0.0468121             4.61128           0.0284924             1.43833           -0.331729            0.187274
Ar            0.779766             5.43597             6.15614            0.648607             1.28331           -0.850602
Ar           0.0238953             5.34446            0.806585             1.32202            -1.89793              1.0754
Ar            0.748167             4.62162            0.810948           -0.417411            -0.21471             1.10584
Ar           0.0395839             4.63987               1.576             1.33651            0.352977             1.02798
Ar            0.737097             5.40636             1.54826           -0.514905           -0.357717            0.484588
Ar           0.0601393             5.37033             2.30837             2.06688            -1.07799            0.113314
Ar            0.790713             4.67054             2.30079            0.806986            0.652376           -0.156177
Ar             6.13283             4.61849             3.07304            -1.17505            -0.46158           -0.302639
Ar            0.809378             5.41987             3.08908             1.06384             0.16116            0.103593
Ar          0.00769826              5.4258             3.85114            -1.28827           -0.140894           -0.156348
Ar            0.729075             4.62549             3.86339             -1.4131          -0.0602018            0.118807
Ar              6.1431             4.67635             4.66512            -1.87066             1.34437            0.741643
Ar            0.726006             5.40793             4.60261            -2.12031           -0.312997           -0.334438
Ar          0.00787731             5.42747             5.43435            0.675521            0.505227            0.367237
Ar            0.745165             4.62101             5.36608            -1.36325            -0.19533            -0.53295
Ar             1.57002             6.13242           0.0623211             1.09454            -2.53837             2.94284
Ar             2.28447            0.754655             6.11608           -0.927641           -0.798746            -2.33454
Ar             1.57491            0.753738            0.730558             0.78884              -1.002            -1.18004
Ar             2.28722             6.14202            0.733331           -0.474324           -0.539121           -0.911331
Ar             1.54642           0.0495367               1.571            0.426165             1.52134             0.70206
Ar             2.31104            0.789267             1.55448           -0.187481            0.779444            0.332431
Ar             1.55633            0.821308             2.35239            0.565618             1.30785            0.924213
Ar             2.31673             6.15137             2.28862            0.119178           -0.320121           -0.745156
Ar             1.53643             6.15104             3.09728            0.156225            -0.50515            0.140511
Ar             2.28558            0.749462              3.1236           -0.688896           -0.711062            0.923842
Ar             1.52652            0.794001             3.86661           -0.215485            0.553149            0.325937
Ar             2.31714             6.15551             3.91408          -0.0488071            -1.12038             1.44099
Ar             1.53532             6.15522             4.59102        -0.000587898           -0.144616           -0.876644
Ar             2.33526            0.738066             4.63072            0.555334            -1.45344            0.359489
Ar             1.52586            0.749317             5.43937           -0.206821           -0.664042            0.812829
Ar             2.35308           0.0975046             5.36551             1.44356             3.69339            -0.86186
Ar             1.57097             1.56148          0.00789966            0.822103            0.684632            0.703049
Ar             2.27885             2.34512             6.12433            -1.11069            0.830232            -1.34303
Ar             1.55946              2.3304            0.762121             0.47272            0.397716           -0.183244
Ar             2.35213             1.54754             0.70282             1.00561           0.0530446            -2.01583
Ar             1.57465             1.51091             1.53457            0.644992           -0.495826           -0.230892
Ar              2.3128             2.35023              1.5809           -0.121952             1.08142             1.26493
Ar             1.53881             2.35953             2.28834           0.0974705             1.07836           -0.737007
Ar             2.32308             1.59325             2.35512            0.125693              1.3019              1.1529
Ar             1.57905             1.57647             3.05902            0.888993            0.880703            -0.32297
Ar             2.34359             2.30336             3.09608            0.867042           -0.157013            0.353507
Ar             1.58864             2.31884             3.88457             1.23859           0.0809762            0.624281
Ar             2.34239             1.56915             3.89779            0.711323            0.718188             1.02031
Ar             1.58834             1.51863             4.62449            0.957843           -0.388725           0.0714836
Ar             2.33374             2.31192             4.60624            0.626613           0.0574229           -0.411512
Ar             1.50738              2.3414               5.443           -0.810545            0.612872             1.25071
Ar             2.33254             1.53874              5.3947            0.460836           -0.169777           -0.284698
Ar             1.56836             3.08482             6.15254            0.559872            0.359344            -1.29835
Ar             2.34713              3.8854           0.0762557            0.701471            0.592147             3.08216
Ar             1.58131             3.83219            0.699246            0.676251           -0.596785            -2.29575
Ar             2.34521             3.12535            0.735187             1.05768             0.58551            -0.61073
Ar             1.58655             3.06956              1.5746            0.944799         -0.00412164            0.690405
Ar             2.36222             3.84287             1.53568             1.30612           -0.457268           -0.271692
Ar             1.58713             3.85788             2.31666              1.1406         -0.00838411            0.116583
Ar             2.32835             3.07038             2.28953            0.732702            -0.43466           -0.369641
Ar             1.52804             3.09278             3.12794           -0.232992            0.117012            0.821723
Ar             2.33522             3.90897             3.06694            0.498392             1.30354           -0.543376
Ar             1.57923             3.86062             3.89297             1.02066          -0.0493767             1.00567
Ar             2.34035             3.13042             3.85682            0.774674            0.893806           -0.105014
Ar              1.5447             3.11049             4.60275            0.136584            0.503572           -0.237561
Ar             2.30351             3.87539             4.65377           -0.307185            0.415849             0.75535
Ar             1.56079             3.83987             5.37751            0.458112           -0.516659           -0.605947
Ar             2.29548             3.12339             5.37235            -0.13074            0.535879           -0.820703
Ar             1.55658             4.66129           0.0213126            0.473222            0.858418             1.72447
Ar             2.29187             5.37653           0.0876599           -0.370077            -1.33422             3.35689
Ar             1.50618             5.42264            0.783159            -0.71384          -0.0473375           0.0748519
Ar             2.35458             4.62923            0.762031             1.18206          -0.0819584           -0.027453
Ar             1.58957             4.62359             1.55033             1.00578           -0.171124            0.154721
Ar             2.30223             5.44851             1.55548           -0.281373            0.965326            0.191502
Ar             1.54222             5.42831             2.29713           0.0459794            0.551242           -0.396005
Ar             2.29263             4.64414             2.35798           -0.441979            0.561471             1.05801
Ar               1.587             4.65627             3.10621            0.906056            0.667401            0.576307
Ar             2.34341             5.37351             3.11544            0.836396           -0.887172            0.631513
Ar             1.55915             5.39046              3.9068            0.457481           -0.885463              1.0303
Ar             2.32796             4.62461             3.88892            0.316918          -0.0826683             0.85306
Ar             1.55981             4.62921             4.59603              0.3279           0.0364046           -0.599013
Ar             2.32336             5.36183             4.65285            0.515268              -1.129            0.635841
Ar              1.5828             5.45114              5.4991            0.779745            0.746623             4.28854
Ar              2.2975             4.62252             5.46113          -0.0499895           -0.314872              1.9387
Ar             3.09849             6.14195             6.10717            0.396392             -1.0862            -2.42349
Ar              3.8205            0.781739           0.0726829            -1.19701             0.11175              2.0654
Ar             3.09377            0.746725             0.72878           -0.149937           -0.705707           -0.824727
Ar             3.87477             6.13642            0.830751              0.4789            -2.07664             1.77741
Ar             3.12389             6.13405             1.59504             1.07325            -3.33609             1.33204
Ar             3.84421             0.71853             1.54207           -0.326052            -2.38432            0.333814
Ar             3.12963            0.735785             2.31968            0.993465            -1.65196            0.296393
Ar             3.89467           0.0553802             2.28672             1.18061             1.42962           -0.348069
Ar              3.0952           0.0163705             3.05075             0.25629            0.522685           -0.631917
Ar             3.90909            0.754736             3.08962             1.33318            0.204224            0.259192
Ar             3.09123            0.758481             3.86101            0.376014           -0.604709          -0.0113123
Ar             3.83032           0.0653085             3.83028           -0.529218             1.61124           -0.515809
Ar              3.0919             6.16011             4.65643            0.435612           -0.186726            0.613635
Ar             3.81624            0.771205             4.68161            -1.19965            0.500553             1.51257
Ar             3.07938            0.712036             5.37122            0.199862            -2.20699           -0.544043
Ar             3.86871             6.17307             5.37004            0.507362            0.124568           -0.967657
Ar             3.12083             1.54677           0.0186147            0.735076            0.319699             1.48564
Ar             3.86879             2.32003             6.10884            0.187817            0.196093            -2.11379
Ar             3.14356              2.3696            0.807091             1.50947             1.53961             1.20304
Ar             3.91569             1.53691            0.800515             1.60645           0.0651548            0.816672
Ar             3.12031             1.51279             1.56741            0.680642           -0.423981            0.564095
Ar             3.85286             2.35283             1.56434          -0.0847029            0.962147            0.652362
Ar             3.05902             2.34289             2.29383           -0.344554            0.643841           -0.474998
Ar             3.87636             1.50465             2.29688            0.652826            -0.85734            -0.42959
Ar             3.12431             1.59073             3.14026             1.11849             1.14086             1.39526
Ar             3.87062             2.33663               3.126            0.260927            0.609041            0.968912
Ar             3.08156              2.3119             3.84625            0.115506           0.0722265           -0.110508
Ar              3.8317              1.5739             3.85642           -0.422686            0.499307            0.272539
Ar             3.12218             1.54976             4.63708            0.795983            0.331255            0.285501
Ar             3.87424             2.30711             4.64884            0.349123          -0.0531516             0.56215
Ar             3.13051             2.36175             5.39727            0.729963             1.26054           -0.602646
Ar             3.85874             1.51359             5.37315            0.196876           -0.559981           -0.614104
Ar             3.07917              3.0994          0.00648801          -0.0222719             0.27131             0.99914
Ar             3.90341              3.8973           0.0550777             1.08054            0.907434             2.14793
Ar             3.07116             3.87711            0.807093             0.14391            0.381068            0.839435
Ar             3.83864             3.06981             0.79205           -0.303644           -0.051762            0.243618
Ar             3.05693             3.08397              1.5321           -0.474283           0.0475085          -0.0767224
Ar             3.87376             3.83024             1.52513            0.282613           -0.612394           -0.229752
Ar             3.13158             3.88122             2.31003             1.06987            0.568865          -0.0787403
Ar              3.8705                3.09             2.34029            0.282291           0.0640531            0.613386
Ar             3.08087             3.09649             3.10073           0.0166649               0.386            0.296151
Ar             3.82823              3.8324             3.14183           -0.842567            -0.62474             1.63417
Ar             3.11544             3.84021             3.85661            0.611582           -0.377021           0.0930786
Ar             3.86658              3.0906             3.84932              0.3609          -0.0971913          -0.0582887
Ar             3.12561             3.06444             4.66941            0.762509           -0.251797            0.655113
Ar             3.91243              3.8813             4.67141             1.35075            0.438451            0.902326
Ar             3.07062              3.8971              5.3833           -0.154555            0.936456            -0.83091
Ar             3.88745              3.1105             5.43577            0.875612            0.535306            0.356298
Ar             3.06251             4.62981          0.00901868           -0.167137            0.234708            0.190938
Ar             3.87687             5.41924           0.0287153            0.595979           -0.347925            0.895582
Ar             3.09686             5.36466            0.748508            0.414758           -0.989045           -0.376617
Ar             3.87092             4.68087            0.758211            0.517604             1.05785           -0.125338
Ar             3.13072               4.602             1.53759            0.885386           -0.337851           0.0790875
Ar             3.86691             5.40877             1.52893            0.440462           -0.178766            -0.14096
Ar             3.07218             5.38172             2.34508          -0.0494994           -0.542975            0.632521
Ar             3.83601              4.6625             2.33767           -0.357361            0.529146            0.715961
Ar             3.10479             4.61911             3.07802            0.429238           -0.299607           0.0600869
Ar              3.8806             5.42552             3.08651            0.648387            0.747817           0.0424238
Ar              3.1052             5.45522             3.87986             0.46838             1.28018            0.379745
Ar              3.8382             4.63602               3.838           -0.342977            0.113576           -0.313133
Ar             3.09199             4.67553             4.65457            0.371307             1.08715            0.608767
Ar             3.87188             5.36016             4.62723            0.434325            -1.15361           -0.190393
Ar             3.06766             5.36761             5.40501           -0.345609           -0.901794            0.375563
Ar             3.82842             4.61804             5.44355           -0.473132           -0.296915             1.76601
Ar             4.62953           0.0603407             6.15108            0.162578             2.56474            -1.77667
Ar             5.43812             0.74949             6.12775            0.666746           -0.646502            -2.52094
Ar              4.6539            0.757166            0.748566            0.574886           -0.169027             -1.3719
Ar             5.44441           0.0283876            0.688001            0.851262             1.73044            -3.31932
Ar             4.61742          0.00119734             1.52509            0.107658            0.182223           -0.232113
Ar             5.37621            0.701537             1.58365           -0.863088            -2.44727             1.27157
Ar             4.65388             0.80161             2.30744            0.669826            0.677805           0.0240957
Ar             5.40269           0.0135478             2.29031           -0.293678            0.828146           -0.350812
Ar             4.63569             6.17225             3.06264            0.437283            0.791794           -0.550028
Ar              5.3615            0.762936              3.0728            -1.16392           -0.488258           -0.121518
Ar             4.63447            0.759429              3.8667            0.320066            0.411414            0.341547
Ar             5.36993             6.17388             3.82733           -0.869372            0.358552            -0.54391
Ar             4.68241             6.12933             4.63308             1.16679            -2.70312            0.103326
Ar             5.36085            0.730186              4.6029            -1.05921            -2.31358           -0.372852
Ar             4.63579             0.71871             5.39179             0.13631            -2.02247           -0.668943
Ar             5.44548          0.00276969             5.42196             1.23209            -0.36392           -0.659516
Ar             4.61331             1.52638          0.00369638           -0.292663           -0.252893           -0.205327
Ar             5.41445              2.2951           0.0220729            0.339973           -0.589455            0.841282
Ar             4.65395             2.27344            0.756602            0.401113           -0.906561           -0.166937
Ar             5.46077             1.52837            0.703156             1.89572           -0.493478            -2.12758
Ar             4.60114             1.55547             1.52249           -0.339287            0.283435           -0.262245
Ar             5.42302             2.28127              1.5923             0.18619           -0.798834              1.2476
Ar             4.64728              2.3003             2.30608            0.314948           -0.366276           -0.114927
Ar             5.44719             1.58318             2.33308            0.806798            0.753523            0.509044
Ar             4.63431              1.5177             3.09258           0.0895362           -0.192375            0.187186
Ar             5.39901             2.31922             3.10249           -0.191379            0.185207            0.409606
Ar             4.68008              2.2896             3.85291            0.982181           -0.561255           0.0148725
Ar             5.43377             1.52142             3.82775            0.114177           -0.176515           -0.556233
Ar             4.63877             1.54334             4.64421            0.269869            0.088945            0.200855
Ar             5.40733             2.33103              4.6468           -0.217961            0.481247            0.346087
Ar               4.637             2.31809             5.41003            0.210877            0.149223           0.0440851
Ar             5.40958             1.53982             5.39566            0.226379           -0.174484             0.12816
Ar             4.65642             3.07404             6.17539            0.662296           -0.174034           -0.483038
Ar              5.4477             3.84854            0.039545             1.30346           -0.096854              1.5684
Ar             4.67292             3.89237            0.745259            0.975524            0.880837           -0.565292
Ar             5.47161             3.09639            0.779101              2.0866          0.00788362            0.726542
Ar             4.66966             3.06117             1.54461             0.73032           -0.486747          -0.0294559
Ar             5.47737              3.8504             1.51332             2.69757          -0.0599939           -0.750954
Ar             4.62196             3.89205              2.3006           -0.067969            0.852492           -0.338871
Ar             5.46632             3.07313             2.35792             1.80514           -0.338718            0.791895
Ar             4.62205              3.0778              3.1224           -0.092718           -0.104473            0.634576
Ar             5.43709             3.89945             3.06518           0.0732332            0.806275           -0.506803
Ar             4.65054             3.87656             3.87671            0.640776            0.356936            0.451918
Ar             5.40092              3.1279             3.88164            0.025646            0.760459            0.506546
Ar             4.59437             3.06649             4.64077           -0.689021           -0.444862            0.090363
Ar             5.42137             3.87062             4.64292            0.736918            0.307218            0.323281
Ar             4.64747             3.90651             5.41683            0.501203             1.11801            0.300997
Ar             5.38793             3.08803             5.40044           -0.175697          -0.0479188            0.298446
Ar              4.6386             4.67247           0.0441852            0.399664             1.14651             1.70494
Ar             5.35789             5.48588          0.00835797            -1.71185             4.26294             0.95739
Ar             4.60666             5.41207            0.745655           -0.318885            0.168546           -0.518202
Ar             5.40671             4.60988            0.802012             0.50459           -0.296867            0.597321
Ar             4.61845             4.67102             1.55219           -0.224424            0.805132            0.262915
Ar             5.45774             5.39182             1.56812             2.46285           -0.119058            0.513018
Ar             4.65941             5.43537             2.32118            0.535907             1.05532            0.175126
Ar             5.37264             4.62215             2.33616           -0.883901           -0.135207            0.409672
Ar             4.64014             4.66539             3.05774             0.14031            0.696273           -0.347488
Ar             5.42373             5.42759             3.07665            0.466551            0.290788           -0.263883
Ar             4.62727             5.37394             3.86684          -0.0891695           -0.999912            0.127598
Ar             5.41345             4.64443             3.83589           0.0666886             0.36743           -0.325235
Ar             4.67297             4.60161             4.63438            0.875268           -0.334266          -0.0158475
Ar             5.44494             5.36261             4.64008             0.70184           -0.966985            0.103804
Ar             4.65685             5.45477             5.50608            0.265307             2.19604             4.93347
Ar             5.41159             4.62225             5.47755            0.429298            -0.25428             2.68116
