256
Position of argon atoms in fcc cell after one integration
Ar             6.14052           0.0933296           0.0915587             -0.7481             3.38116             2.77631
Ar             0.77127             0.79054             6.04445            0.914216            0.187028            -5.61522
Ar             6.09251            0.763144            0.755197            -2.87406           -0.460514            -1.04322
Ar            0.826339             6.06712            0.806194             1.72718            -4.70785            0.376771
Ar              6.1214           0.0638049             1.54522            -1.21833             1.80258           -0.033523
Ar            0.802376            0.827591             1.54361              1.1709             1.19813           -0.059388
Ar             6.14458            0.787351             2.36317           -0.624457            0.267449             1.20186
Ar            0.789894             6.08474             2.30612           0.0657923            -2.58145           -0.419701
Ar             6.10332           0.0637588             3.08352            -2.12698              1.4287           -0.124538
Ar            0.835033             0.78508             3.11963             1.49452            0.224025            0.858247
Ar            0.100434            0.792285             3.82945             3.49915            0.584174           -0.809839
Ar            0.770721              6.0831             3.82835            0.460675            -3.15458           -0.693556
Ar           0.0714484            0.091101             4.63602             3.20534             2.94605            0.231293
Ar            0.763497            0.719761             4.65754           -0.758243            -1.92371            0.677401
Ar             6.08274            0.738566              5.4112             -3.5808           -0.758676           -0.604647
Ar            0.785215           0.0332755             5.40894            0.268247            0.729242            0.065826
Ar           0.0831759              1.5439           0.0785807             3.30527           -0.160433             2.71115
Ar            0.774937             2.35903            0.069754          -0.0496963             1.04205             2.77346
Ar             6.11762             2.34002            0.805914            -1.96849            0.470433            0.637524
Ar            0.758978             1.52358            0.764497           -0.366487           -0.587646           -0.583743
Ar             6.13934              1.4976             1.57278            -1.49598            -1.46853            0.711053
Ar            0.780208             2.34691             1.52737            0.428214            0.752381            -0.43659
Ar             6.14012             2.28683             2.35021           -0.663026           -0.799054            0.834246
Ar            0.827797             1.50027             2.35226             1.57286            -1.35848            0.990362
Ar             6.09742             1.53451             3.05789            -2.26479           -0.270346           -0.982875
Ar             0.83619             2.35142             3.11229             1.48542            0.868023            0.794894
Ar             6.13135             2.33808             3.85858            -1.30889             0.51759          -0.0953853
Ar             0.77301             1.58877              3.8998            0.301251             1.19715             1.14114
Ar             6.08962             1.56899             4.59378            -2.52118            0.873326            -1.03112
Ar            0.806946             2.29313             4.59673            0.983427           -0.806908            -0.96153
Ar           0.0699085             2.34277             5.39108             2.79784            0.916158           -0.414986
Ar            0.823684             1.52565             5.39981             1.12232           -0.761521           -0.240638
Ar           0.0824019             3.08068             6.10233             2.62398            -0.36386            -3.25776
Ar            0.806299             3.88576             6.11157            0.649589            0.593929             -2.4905
Ar             6.11827             3.83604            0.772943            -2.18332           -0.626167           -0.120443
Ar             0.76236             3.13484            0.807863            0.308953             1.28379             1.13621
Ar             6.08951             3.09382             1.59321            -2.92401             0.13635             1.41083
Ar            0.784947             3.85861             1.48929            0.516694           -0.139089            -1.78029
Ar            0.102268             3.81717             2.35696             3.83043            -1.13148             1.27499
Ar            0.818659             3.08354             2.31599            0.849082          -0.0856235           -0.140345
Ar             6.10304             3.11809             3.12415            -2.57833            0.773814            0.937658
Ar            0.736971             3.87874             3.06156            -1.16206            0.534451           -0.987049
Ar             6.09385             3.86831             3.86405            -2.95281             0.14868           0.0739881
Ar            0.787979             3.12797              3.8842            0.558925            0.959447            0.556705
Ar             6.09445             3.04837             4.64111            -2.68187             -1.0877            0.279208
Ar            0.803455             3.86571             4.63015            0.587245           0.0590002           -0.127656
Ar             6.09159             3.83901             5.38781            -2.73655           -0.607697           -0.581257
Ar             0.80589              3.0997             5.37061            0.802383            0.174196           -0.819997
Ar             6.12302             4.67778            0.104469            -1.54467             1.57462             4.14096
Ar            0.826265             5.37367           0.0328804             1.56481           -0.902399            0.981244
Ar             6.13744             5.36529            0.752856            -1.07427            -1.32068            -0.80136
Ar            0.844401             4.65015             0.74263             2.61929            0.535666            -1.30494
Ar           0.0852802             4.60803             1.57766             2.58423           -0.452994             1.28469
Ar            0.790178             5.39488             1.58419          0.00141668          -0.0965077             1.30055
Ar           0.0692236              5.3696             2.26429             2.12904           -0.827524            -1.49967
Ar            0.726653             4.65105             2.27401            -1.84989            0.747192             -1.3997
Ar           0.0718421             4.64008              3.1055             2.88712             0.26137            0.504367
Ar            0.759708             5.36626             3.06252           -0.640398           -0.741475             -0.6772
Ar             6.09867             5.40469             3.85668            -2.87141           -0.441531           -0.201635
Ar            0.766157             4.61934             3.84185            -0.22518           -0.407888           -0.518308
Ar           0.0953919              4.6244             4.62019             3.19326           -0.151688           -0.168474
Ar            0.770699              5.4172             4.59835          -0.0639485          -0.0163378           -0.887596
Ar           0.0422294             5.36855             5.37713             1.39404           -0.797571           -0.541996
Ar            0.758665             4.65087             5.37015           -0.767496            0.564939           -0.976145
Ar             1.50185            0.105523           0.0940253            -1.20479             4.27897             3.64483
Ar             2.34711            0.741883           0.0669988            0.771341             -1.0471             2.57629
Ar              1.5756            0.756147            0.773403            0.812048            -1.00392           -0.548904
Ar             2.29159           0.0373572            0.788883           -0.799607            0.777651          -0.0771731
Ar              1.5429            0.103039               1.559           -0.134223             4.50039            0.456609
Ar             2.32273            0.799918             1.59495            0.257944            0.563027             1.37519
Ar             1.53418            0.742027             2.29435           -0.454719           -0.739272           -0.748852
Ar               2.275             6.05988             2.29359            -1.22516             -3.8788           -0.690879
Ar             1.56837           0.0917926             3.11977            0.547808             3.08286            0.972373
Ar             2.30466            0.742369             3.09576           -0.334452            -1.28985            0.421137
Ar             1.55704            0.747759             3.82681             0.36495            -1.05715            -1.29544
Ar             2.34463           0.0699871             3.87749            0.827394             2.06757            0.261799
Ar             1.56838           0.0508228             4.67301             0.53974             1.63603              1.0739
Ar             2.31182            0.800371             4.62442           -0.152444            0.542091           -0.414137
Ar             1.52085            0.782886             5.41994            -1.16452           0.0629359           0.0878181
Ar             2.34307             6.10226             5.43388            0.931753            -2.93204            0.993761
Ar             1.50079             1.56328           0.0851801             -1.1979            0.554452             2.96214
Ar             2.28755             2.30144              6.0953           -0.703904             -0.4089            -2.98578
Ar               1.593             2.28022            0.786268             1.24179             -1.2159            0.471421
Ar             2.34836             1.59074             0.75773            0.686802              1.3079          -0.0840773
Ar             1.50643             1.59167             1.53617            -1.20562             1.22446           -0.244775
Ar             2.35461             2.32765             1.48951            0.955775             0.18032            -1.61979
Ar             1.57326             2.35372             2.26904            0.510012             1.03856            -1.29725
Ar             2.36461             1.56991             2.28206             1.44306            0.371146            -1.09296
Ar             1.52043             1.55209             3.04112            -1.06733            0.126245            -1.35958
Ar             2.31212             2.31964             3.11871          -0.0788858            0.235662             0.80655
Ar             1.49641             2.32807             3.83029             -1.5951            0.422651            -1.12756
Ar             2.35384             1.52444             3.91315              1.1341           -0.479058             1.54316
Ar             1.51045             1.52064             4.64472            -1.04132           -0.466209            0.445537
Ar             2.26964             2.27211             4.60793            -1.13464            -1.20457           -0.666179
Ar             1.51331             2.33761             5.35096           -0.818813            0.561753            -1.20972
Ar             2.36686              1.5849             5.38827             1.49133              1.1253          -0.0160899
Ar             1.58654             3.10748           0.0595771             1.21589            0.431757             1.81793
Ar             2.36835             3.84713           0.0732756             1.44858           -0.544657             2.85543
Ar             1.49028             3.86092            0.805377            -1.78197          -0.0317187             1.01981
Ar             2.28813             3.11566            0.749618           -0.910951            0.797732           -0.902017
Ar             1.53812             3.09686             1.58814           -0.418186           0.0727967             1.30378
Ar             2.36585             3.85181             1.55318             1.34926           -0.303239            0.239066
Ar             1.55948             3.86164             2.33332            0.523787          -0.0339214            0.421827
Ar             2.32069             3.11545             2.34716            0.152677            0.644931            0.743781
Ar             1.58413             3.04035             3.14071            0.911654             -1.5171             1.40291
Ar             2.26762             3.85654              3.1076            -1.33077           -0.128156            0.293596
Ar             1.49322             3.87786             3.83761            -1.50789            0.339689           -0.596058
Ar             2.31665             3.05208             3.90686           0.0883983           -0.986778             1.13368
Ar             1.52232              3.1389             4.68422           -0.791038             1.35881             1.60788
Ar             2.30186             3.81174             4.66768           -0.340614            -1.44155              1.0516
Ar             1.55238             3.89607             5.38225          0.00814536            0.746336           -0.534306
Ar             2.35101             3.06102             5.37606             1.07287           -0.618129           -0.581982
Ar             1.49036             4.65809            0.106471            -2.32113            0.914585             3.98321
Ar              2.3019             5.41898             6.13033           -0.409697            0.799012           -0.964576
Ar             1.49403             5.40716             0.77655            -2.07121           -0.100707           -0.269098
Ar             2.34777             4.60502            0.810953            0.802759           -0.683156            0.809676
Ar             1.55019             4.67816             1.55711            0.204328             1.50244            0.346924
Ar             2.29043             5.35023             1.56951           -0.847177            -1.09917            0.685025
Ar             1.57816             5.36822             2.31375             1.01501            -0.61979           -0.256028
Ar             2.29223             4.59422             2.34772           -0.763136           -0.971348            0.828163
Ar             1.54765              4.6722             3.07335            0.135842             1.15763           -0.484561
Ar             2.36202             5.35953              3.1274             1.42894             -1.2989            0.863564
Ar             1.50848             5.39687             3.83908            -1.17706         0.000687892            -0.52858
Ar             2.35776             4.60238             3.89531             1.24349           -0.627654            0.913632
Ar              1.5203             4.65854              4.6482           -0.596067            0.781014            0.679831
Ar             2.27893             5.38546             4.60589           -0.935635           -0.955662            -0.49123
Ar             1.59306             5.34647             5.39921              1.6073              -1.397           -0.259279
Ar             2.29359             4.67126             5.37577           -0.741584             1.28584           -0.407824
Ar             3.14542            0.125759             6.04108             1.88312             7.73901            -8.50156
Ar             3.81457            0.725503            0.164052            -1.48567            -2.09387             9.48602
Ar             3.07229             0.79931            0.794679           -0.295652            0.450595            0.301417
Ar             3.84111            0.034705            0.757584           -0.558486             1.51067           -0.663345
Ar             3.09141           0.0618296             1.53739           0.0814997             1.72756           -0.348866
Ar             3.86699            0.809685             1.53667            0.184354            0.845553           -0.260477
Ar             3.04007            0.793008              2.3173            -1.37604            0.437067           -0.120538
Ar             3.88225           0.0341125             2.31218            0.537266            0.920851          -0.0462898
Ar             3.06615            0.060168             3.07904           -0.587658             1.97869            -0.10371
Ar             3.86075            0.716092             3.08327           0.0742277            -1.88352         -0.00585488
Ar             3.03859            0.747878             3.81946            -1.66261            -1.04002            -1.25242
Ar             3.90464           0.0442755             3.83593             1.30947             1.04865           -0.847281
Ar             3.08605             6.12721             4.68675          -0.0362615            -1.44432             1.58734
Ar             3.88573             0.76411             4.67001             0.77435           -0.219688             1.08489
Ar              3.1123            0.786279             5.38391            0.618512            0.643515           -0.132468
Ar             3.81772             6.05575             5.42508            -1.51512             -7.0128            0.704061
Ar             3.12066             1.52327             6.07743            0.858468           -0.440751              -3.238
Ar             3.85502             2.30542             6.12382           -0.320686           -0.251035            -1.75379
Ar             3.10122             2.29813            0.787843           0.0991858           -0.564913              0.3242
Ar             3.89774             1.52776             0.77171            0.971094           -0.676157            -0.21526
Ar             3.08107             1.53794             1.58946           -0.485894           -0.342687             1.16121
Ar              3.8906              2.3534             1.52314            0.798208            0.908886           -0.656407
Ar             3.08085             2.35973             2.36521            -0.22207             1.24059             1.30984
Ar             3.90741             1.54171             2.33968             1.19869          -0.0559324            0.514132
Ar             3.13188             1.54515             3.08724             1.34814            0.250684            0.152629
Ar             3.81507             2.27565              3.1334            -1.42061            -1.44867             1.38184
Ar             3.05031             2.28283             3.81547           -0.962323            -1.01031            -1.38295
Ar             3.82263             1.58868             3.81029            -1.12958             1.41295            -1.68615
Ar              3.0794             1.54614             4.64558           -0.395784          -0.0430847            0.420858
Ar             3.86959             2.28464             4.66309            0.308066           -0.969215             1.01468
Ar             3.12184             2.29955             5.44393            0.951062            -0.68711             1.39058
Ar             3.81616             1.58114             5.38107            -1.48946             1.14428           -0.262936
Ar              3.0592             3.07313              6.0994           -0.905328           -0.398363             -2.7689
Ar             3.89612             3.87658             6.10691            0.879105            0.510507            -2.07467
Ar             3.09688             3.83807            0.765159          -0.0817387           -0.542896           -0.307615
Ar             3.91131             3.09607            0.771407             1.31377            0.111918            0.323509
Ar              3.0605             3.08643             1.59165           -0.825747         -0.00384473             1.21416
Ar             3.85025              3.8161              1.5297           -0.279378            -1.16532             -0.4414
Ar             3.09394              3.8759             2.28986            0.131316            0.226741           -0.810722
Ar             3.81223              3.1071             2.37024            -1.48617            0.688374              1.6172
Ar             3.08568             3.09605             3.05013            0.072444            0.015758            -1.35643
Ar             3.88709             3.81192             3.03925            0.760855            -1.48126             -1.5709
Ar              3.0857             3.83146             3.87587          -0.0953493           -0.644328            0.480262
Ar             3.86779             3.04237             3.87576            0.204552            -1.16965             0.31125
Ar             3.04978             3.09151             4.63006            -1.24378            0.329907          -0.0627551
Ar             3.86465             3.88848              4.6144            0.117837            0.766919           -0.470793
Ar             3.09601             3.82159             5.36372            0.141887             -1.0688           -0.981805
Ar             3.91253             3.07549              5.4311             1.54823           -0.458944             1.07343
Ar             3.06909             4.62346             6.08588           -0.439706           -0.210516            -2.86754
Ar             3.87597             5.34421           0.0565445            0.471895            -1.56517             1.64431
Ar             3.08203             5.39432            0.814148          -0.0918909           -0.550878            0.743031
Ar             3.89981             4.62699            0.761977             1.20907           0.0897548           -0.523105
Ar             3.12164             4.66131             1.53657            0.767686            0.899128           -0.338062
Ar             3.83796             5.40991             1.54468           -0.731779           -0.477404          -0.0732884
Ar             3.09992              5.3718             2.35935            0.408871            -1.04449             1.31295
Ar             3.81959              4.6502             2.34241            -1.15602            0.590286            0.722404
Ar             3.06081             4.69043             3.07637           -0.796505             2.08568             -0.4874
Ar             3.82753             5.36771             3.07561            -1.09713            -1.01576           -0.478835
Ar             3.09581              5.4044             3.84568            0.137117           -0.261931           -0.466733
Ar             3.83978             4.59109             3.81915           -0.558359           -0.931038           -0.954273
Ar             3.05792             4.62499             4.60348           -0.900342           -0.176433           -0.912617
Ar             3.81582             5.38564             4.59766            -1.26194           -0.274395           -0.790046
Ar             3.04156             5.41214             5.36388             -1.3262            0.586857           -0.939327
Ar             3.85762             4.59637             5.43817           -0.136882            -1.22892            0.781619
Ar             4.61428            0.111155             6.06695           -0.423467             4.26971            -4.85299
Ar             5.38296            0.757088           0.0831705           -0.245341           -0.269273             3.54026
Ar             4.62199            0.771823            0.780276           -0.433659           0.0238882            0.141932
Ar             5.37852             6.07343             0.76388           -0.453355            -4.53678           -0.207345
Ar             4.65416           0.0665157             1.55024            0.492524             1.90759            0.187369
Ar             5.44655            0.811336             1.52458             1.46218            0.935319           -0.545526
Ar             4.65732            0.760635             2.27175            0.614832           -0.524148            -1.33329
Ar             5.36982           0.0266457             2.34566           -0.700101            0.711271            0.699149
Ar               4.612           0.0585864             3.11524           -0.715047             1.30547            0.796905
Ar              5.3597            0.795739             3.10739           -0.940368            0.569076            0.531977
Ar             4.59322            0.786723             3.84254           -0.954511          -0.0270258           -0.568475
Ar             5.39447           0.0434117             3.83309           -0.112928             1.48213           -0.766662
Ar             4.66037           0.0524515             4.59441            0.809055             1.43848            -1.03425
Ar             5.40098            0.754548             4.59914           -0.530114           -0.654095           -0.790819
Ar             4.59242            0.778608              5.4092            -1.00161           -0.360012          0.00844218
Ar             5.37715             6.06983             5.39362            -1.09616            -3.67972            0.118044
Ar             4.63453              1.4936           0.0467195             0.17083             -1.3709             1.54995
Ar             5.34963             2.34624             6.11909            -1.19781            0.991124             -1.6425
Ar             4.65048             2.35836            0.781024            0.345301             1.20915             0.83214
Ar             5.43068             1.51296            0.729845           0.0908496            -1.25841            -1.29509
Ar             4.64942             1.53151             1.59378            0.295057           -0.421562             1.44564
Ar             5.36097             2.36731              1.5899            -1.13814             1.61641             1.29994
Ar             4.61293             2.32213              2.2706            -0.47559          -0.0374459            -1.44961
Ar              5.4185             1.50987             2.32734            0.673811            -1.02186             0.30129
Ar             4.65736             1.58652             3.11121            0.682398             1.00371            0.647608
Ar             5.43096             2.31042             3.14182            0.881978           -0.281693             1.53572
Ar             4.67431             2.35719             3.84445             1.03839             1.07296           -0.577258
Ar             5.41122             1.49828             3.81846            0.124934             -1.2007            -1.30055
Ar             4.62178             1.52688             4.64882           -0.334985           -0.439923            0.599722
Ar             5.42545             2.26906             4.65395            0.683077            -1.30533            0.488387
Ar             4.59713             2.32624             5.36716            -1.03497            0.445997           -0.766518
Ar             5.38227             1.50792             5.40205           -0.218074           -0.988691           -0.278357
Ar             4.61808               3.073             6.10153           -0.424606            -0.53555             -2.8656
Ar             5.37667             3.83886            0.058654           -0.626047           -0.629416             1.95632
Ar             4.66163             3.89888            0.767338            0.869964             0.96305           -0.412119
Ar             5.36031             3.13697            0.754863            -1.00611             1.41984           -0.421189
Ar             4.66798             3.10694              1.5067             0.97242            0.207763            -1.18757
Ar             5.42769             3.87014             1.55642            0.542279         -0.00198517            0.196747
Ar             4.58861             3.90218              2.2928            -1.16082             1.10555           -0.442203
Ar             5.42488             3.07727             2.27082             0.80005           -0.521734            -1.72792
Ar             4.66381             3.14076             3.09643            0.763618             1.47046            0.369591
Ar             5.37929             3.87338             3.07336           -0.686889             0.14799           -0.188821
Ar             4.65608             3.82592             3.88884            0.638431            -1.07628            0.641422
Ar             5.38643              3.1166             3.84003           -0.422661            0.713447           -0.723006
Ar             4.66798             3.09877              4.6388            0.789746            0.291061           0.0859567
Ar             5.44795             3.87119             4.64583              1.2093            0.125022            0.463185
Ar              4.6223             3.87967             5.35407           -0.495905            0.435686            -1.05824
Ar              5.4152             3.03874             5.42382           -0.463508            -1.39949            0.613841
Ar             4.64731             4.66241           0.0880952            0.235075            0.960253             3.54416
Ar             5.39397             5.36429             6.07797           -0.496459           -0.884526            -5.08027
Ar             4.64622             5.37034            0.774808            0.294295           -0.707911           -0.371767
Ar             5.42395             4.61766            0.752504            0.813231           -0.459401           -0.934747
Ar             4.60082             4.64532             1.55688           -0.714599            0.373714            0.321031
Ar             5.40502             5.36551             1.58814           -0.510552            -1.20177             1.18576
Ar             4.69102             5.34789             2.35027             1.74523            -1.61698            0.757297
Ar             5.39501             4.65791             2.28114           -0.620616              1.0214            -1.06573
Ar             4.64028             4.60099               3.062            0.340312            -0.68819           -0.779894
Ar             5.40421             5.35133              3.1438          -0.0643023            -1.51385             1.69786
Ar              4.6653             5.33664             3.86181            0.999267            -1.62573           0.0570507
Ar             5.39876             4.63504             3.82907           -0.233818            0.385803            -1.01227
Ar             4.60218             4.65795             4.63087           -0.755752             0.73998          0.00196017
Ar             5.41291             5.39335             4.61885            0.118114           -0.135308           -0.354297
Ar             4.65339             5.39513             5.38729            0.881626          -0.0952549            -0.34338
Ar             5.40736             4.61647             5.40716         -0.00339997           -0.384084          -0.0303823
