256
Position of argon atoms in fcc cell after one integration
Ar             6.16807           0.0180041           0.0210302           -0.934278             1.68282             1.79471
Ar            0.763123            0.779867              6.1552           -0.320228            0.485432            -2.16715
Ar             6.15955            0.768757            0.769371             -1.6472           -0.131918           -0.187668
Ar            0.784647             6.15966            0.785867             1.06441             -1.8483            0.870256
Ar             6.16379           0.0118224             1.54516             -1.3034             1.28216           0.0225123
Ar            0.775347            0.789317             1.54502            0.496192             1.21943          -0.0114623
Ar             6.16915            0.777527             2.33137            -0.82942            0.363721            0.945022
Ar            0.777888             6.15743             2.31449            0.503163            -1.93917           -0.189306
Ar             6.16115           0.0157268             3.08727            -1.53765             1.41503            -0.14167
Ar            0.790535            0.775079             3.09841             1.35479            0.296704            0.596146
Ar           0.0183731            0.776931             3.85172             1.74608            0.376817           -0.679586
Ar            0.766255             6.16139             3.85072           -0.210993            -1.75333           -0.742066
Ar          0.00985243            0.018742             4.63359             1.10392              1.7207          -0.0194899
Ar             0.77083            0.758124             4.64102          -0.0368092           -0.934512            0.451392
Ar             6.16086            0.760532             5.41604            -1.65351           -0.730247            0.336192
Ar            0.774739          0.00976701              5.4103            0.283771            0.769221           0.0367391
Ar           0.0138211             1.54544            0.015521             1.39116           0.0279311               1.444
Ar            0.772957             2.33037           0.0132045           0.0854905            0.874926             1.17391
Ar             6.16942             2.32491            0.782521            -1.12497            0.507179            0.768145
Ar            0.764903             1.53897            0.770603           -0.284517           -0.418281          -0.0730981
Ar             6.17364             1.53165             1.55354           -0.672203           -0.898555            0.582003
Ar            0.769019             2.32632             1.53948           0.0864262            0.613167           -0.358404
Ar             6.16753             2.30791             2.32754            -0.94476           -0.620429            0.687266
Ar            0.785177             1.53282             2.32774             1.12014           -0.845476            0.705663
Ar              6.1585             1.54175             3.08068            -1.67075           -0.207029           -0.605815
Ar            0.791001             2.32781             3.09561             1.41969            0.709447            0.413794
Ar             6.16831             2.32376             3.86074           -0.965865            0.436735          -0.0745806
Ar            0.767649             1.55836             3.87267          -0.0806908            0.890875            0.730121
Ar             6.15732             1.55101             4.62172            -1.79953            0.432697           -0.833787
Ar            0.779584             2.31069             4.62227            0.688202           -0.444118           -0.783733
Ar          0.00987932             2.32344             5.40381             1.09968            0.445318           -0.318249
Ar            0.788869             1.54008             5.40838             1.14879           -0.326436           -0.107796
Ar            0.016156             3.08743             6.16787             1.55607           -0.148811            -1.21248
Ar            0.781926              3.8694             6.16949            0.792874            0.495556            -1.14196
Ar             6.17095             3.85392            0.771235            -1.04206            -0.54172           0.0538814
Ar            0.761919             3.10293            0.779536           -0.409073            0.901531            0.647862
Ar             6.15938              3.0907             1.55965            -1.67152           0.0779945            0.970293
Ar            0.773138             3.86105             1.52984            0.199735          -0.0607349            -1.04492
Ar           0.0187445              3.8482             2.32856             1.72965           -0.923207            0.765466
Ar            0.786863             3.08737             2.31746             1.08791           -0.142988          0.00846623
Ar             6.16399               3.098             3.10001            -1.38077            0.571108            0.700843
Ar             0.76005             3.86658             3.08188           -0.685214            0.315073           -0.518612
Ar             6.16454             3.86388             3.86261            -1.49044            0.130621           0.0403436
Ar            0.771711             3.10164             3.86892            0.268943            0.801868            0.462654
Ar             6.15977             3.07704             4.63583             -1.6091           -0.840141            0.106129
Ar             0.78126             3.86328              4.6332            0.732716           0.0863445          -0.0811131
Ar             6.15947              3.8551              5.4026             -1.6817            -0.46342           -0.382596
Ar            0.781451             3.09321             5.39653            0.716713            0.235008           -0.787247
Ar             6.16566             4.64512           0.0195412            -1.16163            0.770092             1.76192
Ar            0.785978             5.39899          0.00730141             1.08689           -0.695138            0.660837
Ar             6.17007              5.3967             0.76633            -0.87466           -0.801727           -0.348258
Ar            0.789059             4.63873            0.763812             1.32234            0.294285           -0.516071
Ar           0.0189097              4.6247             1.55288             1.64277           -0.608068             0.56586
Ar            0.779377             5.40353             1.55555            0.524521           -0.318542            0.735232
Ar           0.0153953             5.39623             2.30172             1.36608           -0.846297            -1.04849
Ar            0.761705             4.63788             2.30493           -0.767607            0.255301           -0.825787
Ar          0.00951186             4.63513             3.09387             1.13528            0.081388            0.297461
Ar            0.769031             5.39298              3.0811           -0.147868           -0.964822           -0.562415
Ar             6.16622             5.41155             3.86054            -1.38849           0.0770512          -0.0950009
Ar            0.768616              4.6299             3.85572            -0.11784           -0.302426           -0.416126
Ar            0.017834             4.63045             4.62863             1.71636           -0.235436           -0.348513
Ar            0.770854             5.41489             4.62267          -0.0364823             0.31046           -0.757049
Ar          0.00689223             5.39544             5.39835            0.794499           -0.882331           -0.702143
Ar            0.769275             4.63831             5.39786           -0.139528            0.296403           -0.767976
Ar             1.53255           0.0197522           0.0182743           -0.848874             1.78279              1.6425
Ar              2.3264            0.763417           0.0112393            0.616339           -0.552968             1.15171
Ar             1.55448            0.769298            0.775421            0.628639           -0.186973            0.188264
Ar             2.31011           0.0104778            0.779443           -0.484193            0.857974            0.518432
Ar             1.54508           0.0120134             1.54891          -0.0100349             1.50247             0.27579
Ar             2.31821            0.780903             1.55981           0.0787657            0.613413             1.01097
Ar             1.54292            0.760017             2.31064           -0.161448           -0.662275           -0.437884
Ar             2.30486             6.15561             2.31034           -0.832252            -2.17742           -0.462901
Ar             1.55287           0.0181398             3.09809            0.510765              1.7047            0.577129
Ar             2.31322            0.765366             3.09002           -0.260559           -0.461507           0.0503937
Ar             1.54815            0.766355              3.8529            0.233732           -0.385465           -0.624614
Ar             2.32514           0.0161893             3.86743            0.537092             1.37516            0.357101
Ar              1.5523          0.00784531             4.64544            0.502272            0.939887            0.769345
Ar             2.31561            0.780759             4.63188           -0.105404            0.645987           -0.158523
Ar             1.54063            0.776446             5.41619           -0.337187            0.291723            0.375258
Ar             2.32387             6.16549             5.41555            0.462632            -1.36265             0.47243
Ar             1.53169             1.55012           0.0155869            -0.88497            0.360605             1.50322
Ar             2.30792              2.3123              6.1648           -0.621253           -0.325342            -1.43393
Ar              1.5598             2.30722            0.774611            0.990457           -0.686047            0.233785
Ar             2.32741             1.55822            0.763523            0.676453             0.91022           -0.410264
Ar             1.53462             1.55915             1.54219           -0.720042            0.961061           -0.172687
Ar             2.32885             2.32096             1.52917            0.775314            0.242852            -1.07911
Ar             1.55517             2.32796             2.30258            0.655205            0.725875           -0.977061
Ar             2.33056             1.55433             2.30735            0.911913            0.597902           -0.669971
Ar             1.53998              1.5473             3.07511           -0.373696             0.16604           -0.971025
Ar             2.31536             2.31691             3.09831           -0.118644         -0.00220399             0.58552
Ar             1.53198             2.31978             3.85375           -0.897888            0.183955           -0.568077
Ar             2.32727             1.53827              3.8764            0.694196           -0.432001            0.985349
Ar             1.53534             1.53645             4.63617           -0.661557           -0.543398            0.157335
Ar             2.30208             2.30354             4.62614            -1.00362           -0.914675           -0.549358
Ar              1.5351             2.32329             5.39031           -0.646595            0.410664            -1.24375
Ar             2.33124             1.55701             5.39906            0.958275            0.801785           -0.547175
Ar             1.55701              3.0953           0.0117926            0.824427            0.378821             1.15527
Ar             2.33212             3.85828           0.0126268             1.01252           -0.259617             1.22745
Ar             1.53032             3.86172            0.780517            -1.01546          -0.0184951            0.621131
Ar             2.30905             3.09702            0.764915           -0.553302             0.50394            -0.38574
Ar             1.54446             3.09235             1.55707          -0.0620414            0.180209            0.837299
Ar             2.33161             3.85908             1.54723            0.972604           -0.196533            0.166164
Ar             1.54843             3.86204             2.32213            0.258026          0.00222333            0.330976
Ar             2.31795             3.09764             2.32659           0.0549336            0.538466            0.625979
Ar             1.55766             3.07569             3.10496            0.837413           -0.944513             1.03133
Ar             2.30233             3.86021             3.09612            -1.00069            -0.11564            0.422884
Ar             1.53028             3.86722             3.85436            -1.00567             0.34696           -0.508527
Ar             2.31643             3.07821             3.87594          -0.0418048           -0.763645            0.931594
Ar             1.53924             3.10429             4.64756           -0.402898            0.989862            0.929275
Ar             2.31205             3.84729             4.64313           -0.334083            -0.99108            0.624346
Ar             1.54862             3.87316               5.401            0.217047            0.739343           -0.555076
Ar             2.32653             3.08012             5.39762            0.638656           -0.622059           -0.705076
Ar             1.53229             4.63983           0.0208773            -0.89924            0.406327              1.8576
Ar             2.31261             5.40991             6.16524           -0.308575           0.0817529             -1.1535
Ar             1.53308             5.41143            0.775079            -0.84541           0.0695412            0.197206
Ar             2.32648             4.62461            0.784042            0.625063           -0.626964            0.863213
Ar             1.54623             4.64536             1.54844           0.0970437            0.787176            0.246431
Ar             2.30973             5.38918             1.55266           -0.508312            -1.30211            0.502786
Ar             1.55452             5.39412             2.31716            0.653737           -0.920524           -0.019224
Ar             2.31022             4.62162             2.32635           -0.476826           -0.846206              0.6163
Ar              1.5453             4.64458             3.08496           0.0403039            0.719997           -0.314136
Ar              2.3297             5.39505             3.10189            0.851829           -0.971103            0.813391
Ar             1.53525             5.40477             3.85457           -0.676303           -0.294417           -0.489436
Ar             2.32857             4.62308              3.8721            0.777154           -0.718184             0.67625
Ar             1.53707             4.64061             4.63639           -0.512582            0.450382            0.184713
Ar             2.30511             5.40543              4.6242           -0.803412           -0.288738           -0.659972
Ar             1.55781             5.38847              5.4074            0.893332             -1.3376           -0.145741
Ar             2.31042             4.64398             5.39575           -0.455181            0.664797           -0.785686
Ar             3.10496           0.0157758             6.16534             1.04557             1.57549            -1.60923
Ar             3.84825            0.760699           0.0182659            -0.92088           -0.749971             1.98905
Ar             3.08375            0.782356            0.778529           -0.385144            0.626681             0.52487
Ar             3.85579          0.00460006            0.765154           -0.420155            0.573996           -0.303602
Ar             3.08983           0.0130701              1.5439           0.0245501             1.23008          -0.0985791
Ar             3.86316            0.784834             1.54258           0.0860577            0.803161           -0.151101
Ar             3.07487            0.778829             2.31783           -0.990877            0.464619            0.036086
Ar             3.86815          0.00657225             2.31526            0.413379            0.694993           -0.124904
Ar             3.08228           0.0105073             3.08545           -0.487051             1.09566           -0.263909
Ar             3.86114             0.75769             3.08674           -0.051972            -1.03324           -0.176282
Ar             3.07567            0.766493             3.84982           -0.953499           -0.383194           -0.826796
Ar             3.87399           0.0104735             3.85477            0.818454            0.973583           -0.489984
Ar             3.08824             6.16815             4.64919          -0.0870804            -1.04925             1.00967
Ar             3.86829            0.767781             4.64387             0.43848           -0.173089            0.677664
Ar             3.09631            0.769767             5.40035            0.456859            0.126715           -0.560218
Ar             3.84984             6.16493             5.41317           -0.826228            -1.59687            0.303962
Ar             3.09891             1.53772             6.15735            0.625716           -0.468921            -1.89433
Ar             3.86053             2.31322             6.16925           -0.104817           -0.258682             -1.0365
Ar             3.09421             2.31179            0.773928            0.296766           -0.368513            0.360148
Ar             3.87273             1.54069            0.771372            0.721393           -0.287172           0.0441332
Ar             3.08846             1.54376             1.55898          -0.0966621          -0.0870703            0.923925
Ar             3.87044             2.32847             1.53907            0.571544            0.752665            -0.41258
Ar             3.08698             2.32954             2.33159             -0.1774            0.835824            0.968307
Ar             3.87575             1.54379             2.32444            0.925347          -0.0678562            0.481456
Ar             3.10123             1.54366             3.08779            0.798221           -0.058883           -0.105903
Ar             3.84874             2.30623             3.10195           -0.903206           -0.755214            0.839004
Ar             3.07723             2.30729             3.84869           -0.821706           -0.670637           -0.902717
Ar             3.85036             1.55696             3.84771           -0.780365            0.829862           -0.972486
Ar             3.08721             1.54591             4.63703           -0.169425           0.0510897            0.189753
Ar              3.8637              2.3079             4.64164             0.12428           -0.630691            0.509493
Ar             3.09897             2.31293             5.41562            0.634463           -0.299321            0.642068
Ar             3.84928             1.55523              5.3975           -0.862263            0.690854           -0.672569
Ar             3.08098             3.08426             6.16355           -0.587292           -0.349942             -1.4293
Ar             3.87242             3.86582             6.16246            0.701066            0.265522            -1.42336
Ar             3.09333             3.85419            0.767834            0.229358           -0.513796            -0.11125
Ar             3.87676             3.09188            0.765264            0.998739            0.149668           -0.139698
Ar             3.08108             3.08816             1.55936           -0.575266          -0.0874371            0.960284
Ar              3.8582             3.84774             1.54075           -0.248921           -0.949174           -0.293878
Ar             3.09072             3.86702             2.30947           0.0816842             0.32622           -0.527745
Ar             3.84782             3.09381             2.33242           -0.963331            0.297339             1.02983
Ar             3.08745             3.09236             3.07923           -0.129118            0.175814           -0.715732
Ar             3.86896             3.84737             3.07549            0.480459           -0.983007           -0.959767
Ar             3.08837             3.85171             3.86543          -0.0807905            -0.67194            0.246064
Ar             3.86343             3.07478             3.86645            0.102905           -0.985219            0.296699
Ar             3.07858             3.08844             4.63283           -0.753539          -0.0479297           -0.100848
Ar             3.86248             3.86953             4.62798           0.0395525            0.516757           -0.423603
Ar             3.09163             3.84965             5.39355            0.137087            -0.82425           -0.924985
Ar             3.87645             3.08572             5.41158            0.979746           -0.263689            0.374062
Ar             3.08283             4.63029              6.1581           -0.445805           -0.246972            -1.78461
Ar             3.86566             5.38987           0.0109462            0.256289            -1.31518             1.14214
Ar             3.08659              5.4084             0.78585            -0.18853           -0.193542             1.01032
Ar             3.87231             4.63032            0.768841            0.710487           -0.232724           -0.137725
Ar             3.09986             4.64122             1.54329            0.680028            0.493444           -0.130397
Ar             3.85532             5.41629             1.54519           -0.457594            0.264539           0.0206085
Ar             3.09198             5.39936             2.32903            0.172644           -0.693048            0.807061
Ar             3.84918             4.63801             2.32452           -0.856138            0.274339            0.497571
Ar             3.08083             4.64791             3.08626           -0.583719            0.972577           -0.231318
Ar             3.85252             5.39831             3.08588           -0.648125           -0.821702           -0.254739
Ar             3.09163              5.4105              3.8572             0.13515           0.0173626            -0.32301
Ar             3.85504             4.61962             3.84787           -0.461188           -0.948757           -0.927481
Ar              3.0802             4.63109             4.62537           -0.630109            -0.21361           -0.606224
Ar             3.84822             5.40004              4.6219           -0.926185           -0.530148           -0.802019
Ar             3.07536             5.40691             5.39257           -0.958867         -0.00717505            -0.95484
Ar             3.86062             4.62392             5.41931          -0.0855324           -0.713234            0.679922
Ar             4.62769           0.0210777             6.16154           -0.439249             1.93437            -1.73396
Ar             5.39794            0.764825           0.0136124           -0.599443           -0.352246             1.29929
Ar             4.63103            0.770917            0.773797           -0.226089          -0.0276811            0.158664
Ar             5.39605             6.16712            0.767553           -0.671488            -1.54731           -0.185575
Ar             4.64051           0.0150162             1.54668            0.410525             1.32794            0.105084
Ar             5.41667            0.784252             1.53857            0.703542            0.833776           -0.413526
Ar             4.64129            0.770302             2.30404            0.464993           -0.176495           -0.889852
Ar             5.39405          0.00514401             2.32622            -0.85566             0.55718            0.598507
Ar             4.62803           0.0168807             3.09686           -0.427979             1.31494            0.492865
Ar             5.39142            0.780156             3.09483            -1.05415            0.494411            0.351734
Ar             4.62064            0.779274             3.85636           -0.883429            0.411395           -0.380288
Ar             5.40335          0.00740603             3.85319            -0.32511            0.773022           -0.587584
Ar             4.64116           0.0111466             4.62212            0.490607             1.08255           -0.820626
Ar             5.40963            0.767429             4.62257           0.0154753           -0.303731           -0.760226
Ar               4.621            0.774952             5.41249           -0.888253            0.264224            0.118939
Ar             5.40135             6.15657             5.40166           -0.511772            -2.04402           -0.419409
Ar             4.63299             1.52936          0.00686022          -0.0519069            -1.03662            0.842734
Ar             5.38979             2.32494             6.16597            -1.28239            0.532715            -1.22023
Ar             4.63969             2.32887            0.766999            0.350746            0.800337          -0.0490627
Ar              5.4186             1.53768            0.759702            0.676438            -0.52912           -0.815127
Ar             4.63956             1.54124             1.55867            0.338031           -0.247032            0.949702
Ar             5.39207             2.33095              1.5583           -0.957456             0.94249            0.893124
Ar             4.62741             2.31973              2.3044           -0.461266            0.153655           -0.880363
Ar             5.40807             1.53482             2.32024            0.134033           -0.678999            0.202902
Ar             4.64088             1.55798             3.09568            0.444988            0.878833            0.417053
Ar             5.41242             2.31576             3.10455            0.420264           -0.105365             1.01862
Ar             4.64664             2.32917             3.85738            0.820396            0.808158           -0.320345
Ar             5.40926             1.53049             3.84949           0.0991863            -0.95684           -0.845467
Ar             4.63056             1.53911             4.63701           -0.255529           -0.375515            0.222278
Ar             5.41292             2.30241              4.6403            0.350075            -0.98255             0.40246
Ar             4.62288             2.31879             5.39337            -0.74914            0.124013           -0.904981
Ar             5.39783             1.53399             5.40936           -0.657508            -0.74631          -0.0479397
Ar             4.62878             3.08512             6.16647           -0.345298           -0.308432            -1.29041
Ar             5.39721             3.85488           0.0107204           -0.672186           -0.471759             1.08144
Ar             4.64194             3.87334            0.770667            0.514988             0.75802          -0.0168945
Ar              5.3918              3.1033            0.763545            -1.02907            0.924986           -0.373106
Ar             4.64411             3.09625             1.53457            0.660756             0.42703           -0.721136
Ar             5.41558             3.86562             1.54891            0.442342            0.229714             0.27006
Ar             4.61989             3.87389             2.30859           -0.947435            0.804594           -0.557759
Ar             5.41192             3.08681             2.30535            0.296611            -0.19688           -0.818587
Ar             4.64337             3.10443              3.0905            0.603962             1.00736            0.081037
Ar             5.40034             3.86626             3.08323           -0.568378            0.277365           -0.404547
Ar             4.64062             3.85166             3.87049            0.423828           -0.699561            0.566885
Ar              5.3997              3.0979             3.85607           -0.446439            0.555053           -0.406393
Ar             4.64519              3.0921             4.63591            0.715678            0.172938           0.0999528
Ar             5.42012             3.86542             4.63675            0.824756            0.222999            0.189421
Ar              4.6318              3.8675             5.39015           -0.190062            0.370286            -1.19026
Ar             5.41644             3.07435             5.41195             0.41921             -1.0231            0.304958
Ar             4.63883             4.64137               0.014            0.291997            0.507221             1.40962
Ar               5.404             5.39385             6.16973           -0.231573           -0.947884            -1.27839
Ar             4.63815             5.39565            0.774065            0.250779           -0.864071            0.190809
Ar             5.41085             4.62933            0.766894            0.252428           -0.335741           -0.316141
Ar             4.62285             4.63689             1.54849           -0.736505            0.196449            0.247628
Ar              5.4114             5.39791             1.55819            0.124561           -0.809058            0.879298
Ar             4.64991             5.39218             2.32786             1.08285            -1.21354            0.707549
Ar             5.40908             4.63917             2.30679           -0.153846            0.368951           -0.703582
Ar             4.63479             4.62273             3.08143           0.0642617           -0.741411           -0.548156
Ar             5.40768             5.39382              3.1048          -0.0513181            -1.12937             1.03585
Ar             4.64278             5.38718             3.86149            0.577574            -1.52894          -0.0238447
Ar             5.40671             4.63237             3.85271           -0.148966           -0.089348            -0.63073
Ar             4.62378             4.64054             4.63233           -0.683671            0.443829           -0.104008
Ar             5.41209              5.4041             4.62927            0.138038           -0.354842           -0.335313
Ar             4.63791             5.40388              5.4019            0.283198           -0.297943            -0.44341
Ar             5.40893             4.62856             5.41106           0.0200561           -0.385927           0.0462651
