256
Position of argon atoms in fcc cell after one integration
Ar             6.17258             0.01021           0.0125318           -0.830485              1.3742             1.53957
Ar            0.765242            0.777352             6.16522           -0.513182            0.499942            -1.77298
Ar             6.16738            0.769564              0.7703            -1.42459           -0.190312             -0.1823
Ar            0.779612             6.16815            0.781375            0.909389            -1.48823             0.89217
Ar             6.17001          0.00605141             1.54504            -1.13337            0.975592           0.0242623
Ar            0.773295            0.783264             1.54504             0.30659             1.15705          0.00599633
Ar             6.17315            0.775697              2.3266           -0.737624             0.35334            0.932161
Ar            0.775492             6.16655             2.31542            0.430982            -1.63419           -0.178231
Ar             6.16845          0.00906092             3.08801            -1.32478             1.19383           -0.149372
Ar            0.783869            0.773739             3.09542             1.26116            0.226298            0.581789
Ar           0.0103987             0.77515             3.85516             1.38799            0.323202           -0.672861
Ar            0.767658             6.16937             3.85449           -0.340778            -1.37722           -0.738452
Ar          0.00499271           0.0107639             4.63374            0.804605             1.40971          -0.0410122
Ar             0.77107            0.762832             4.63876          -0.0632892           -0.921901            0.438764
Ar             6.16851            0.764311             5.41387            -1.35436           -0.757417             0.51709
Ar            0.773484          0.00600708             5.40983            0.206002            0.703001            0.151401
Ar          0.00751933             1.54526          0.00883271             1.08251           0.0402249              1.1795
Ar            0.772588             2.32594          0.00773877           0.0576646            0.865887             0.97405
Ar             6.17436             2.32233            0.778753           -0.813767             0.50684            0.710002
Ar            0.766652             1.54103            0.771027           -0.408821           -0.392459          -0.0965003
Ar             6.17656             1.53614              1.5506           -0.471671           -0.866945            0.575208
Ar             0.76905             2.32323             1.54128           -0.104619             0.60134           -0.349741
Ar             6.17212             2.31103             2.32407           -0.849274           -0.609924            0.680368
Ar              0.7799               1.537             2.32418            0.948939           -0.799294            0.694224
Ar             6.16654             1.54279             3.08371            -1.48342           -0.200349           -0.586457
Ar            0.784028             2.32423             3.09355             1.31382            0.698663            0.398214
Ar             6.17284             2.32155             3.86113           -0.807481            0.431992          -0.0791334
Ar            0.768418             1.55385             3.86903           -0.225486            0.884917            0.706371
Ar             6.16593             1.54887             4.62593             -1.5756            0.412125           -0.825175
Ar            0.776413             2.31291             4.62626            0.554719           -0.427966           -0.785995
Ar          0.00505263             2.32125             5.40524             0.79811            0.415865           -0.242741
Ar            0.783096              1.5417              5.4086             1.11722           -0.310828           0.0241873
Ar            0.009018             3.08816             6.17325             1.24336           -0.141899           -0.900772
Ar            0.778112              3.8669             6.17448            0.700088            0.488768           -0.813135
Ar             6.17543             3.85665            0.771144           -0.716346            -0.53003          -0.0223517
Ar            0.764464              3.0984            0.776543           -0.592847            0.879886            0.528368
Ar             6.16727             3.09032             1.55473            -1.42894           0.0746215             0.96827
Ar            0.772362             3.86136             1.53502            0.103723           -0.060036           -0.995414
Ar           0.0107995             3.85285             2.32471             1.39437           -0.905819            0.748452
Ar            0.781493              3.0881             2.31739             1.01659           -0.144579           0.0165394
Ar             6.17039             3.09513             3.09648            -1.13287            0.555207            0.686781
Ar            0.763708             3.86501             3.08448           -0.757416            0.304139           -0.505903
Ar             6.17124             3.86323              3.8624            -1.14076             0.12646           0.0414705
Ar            0.770823             3.09759             3.86658           0.0739763            0.792791            0.456843
Ar             6.16742             3.08127             4.63531             -1.3955           -0.824395           0.0974105
Ar            0.777722             3.86284              4.6336            0.651793           0.0859292          -0.0772463
Ar             6.16742             3.85743             5.40439            -1.43951           -0.452132           -0.318494
Ar            0.777984             3.09201             5.40037            0.643544            0.237947           -0.718689
Ar             6.17116             4.64134           0.0113656           -0.996398            0.720552             1.45051
Ar            0.780739             5.40227          0.00420682            0.969002           -0.586934             0.55174
Ar             6.17412             5.40055            0.768168            -0.70995           -0.711946           -0.376488
Ar            0.782702             4.63725            0.766494             1.17547            0.287011           -0.541142
Ar           0.0111901             4.62783             1.55009             1.38776           -0.624366            0.536192
Ar             0.77676             5.40501             1.55188            0.498218           -0.259708            0.709878
Ar           0.0089756             5.40034             2.30697             1.15062           -0.762043            -1.01945
Ar            0.765469             4.63664             2.30908           -0.715428            0.233993           -0.806255
Ar          0.00459556             4.63477             3.09239            0.796332           0.0599914            0.283946
Ar            0.769846             5.39784             3.08394           -0.178483           -0.941056            -0.55626
Ar              6.1724             5.41078             3.86102            -1.03726            0.227189          -0.0934601
Ar            0.769404             4.63141             3.85782           -0.195762           -0.294359           -0.410464
Ar          0.00999081             4.63168             4.63045             1.36329           -0.248312           -0.366384
Ar             0.77114             5.41296             4.62652            -0.07703            0.449397           -0.760049
Ar          0.00336432             5.39976             5.40174            0.585868           -0.810204           -0.621513
Ar             0.77003             4.63687             5.40151           -0.163645            0.269905           -0.659828
Ar             1.53678           0.0114702           0.0106217           -0.814631             1.47037             1.36192
Ar             2.32329            0.766259           0.0060425             0.60628           -0.568279            0.887394
Ar             1.55128            0.770241            0.774404            0.629051           -0.187533            0.207662
Ar             2.31253          0.00633651            0.776834            -0.46652            0.763669            0.500576
Ar             1.54508          0.00560191             1.54752          0.00954482             1.02001            0.271041
Ar             2.31783            0.777864             1.55473            0.069019            0.580031            0.989317
Ar             1.54367            0.763614             2.31285             -0.1335           -0.755348           -0.429613
Ar             2.30904             6.16565             2.31266           -0.811497            -1.76538           -0.450837
Ar             1.55024           0.0102604              3.0952            0.521702             1.38578            0.561108
Ar             2.31454            0.767666             3.08981           -0.259538           -0.447789           0.0324407
Ar             1.54699            0.768296             3.85601            0.222749            -0.38146           -0.598667
Ar             2.32244          0.00968198             3.86561             0.52411             1.17888             0.35822
Ar             1.54977          0.00371803             4.64161            0.494429            0.676066             0.73816
Ar             2.31614            0.777597             4.63267            -0.10338            0.593192           -0.157054
Ar             1.54222             0.77498              5.4139           -0.287135            0.282089            0.530248
Ar             2.32157              6.1717             5.41302            0.441955            -1.07122            0.527449
Ar             1.53613             1.54831          0.00872324           -0.863079            0.351235             1.19227
Ar             2.31105             2.31394             6.17126           -0.609664            -0.32078            -1.10603
Ar              1.5548             2.31063            0.773578            0.980855           -0.658338            0.172947
Ar             2.32399             1.55366            0.765891            0.672015            0.885608           -0.522405
Ar             1.53818             1.55431             1.54307            -0.67967              0.9448           -0.170255
Ar             2.32493             2.31971             1.53455            0.766255            0.246651            -1.03729
Ar             1.55179             2.32432              2.3075            0.671555            0.709705           -0.960233
Ar               2.326             1.55124              2.3107            0.882482            0.616337           -0.648291
Ar             1.54176             1.54646                3.08           -0.329003            0.165094           -0.951508
Ar             2.31596             2.31696             3.09536           -0.119364          -0.0151575            0.574443
Ar             1.53642             2.31888             3.85657           -0.853619            0.172478           -0.542855
Ar             2.32381             1.54045             3.87148            0.666477           -0.428203            0.952446
Ar             1.53862             1.53922             4.63544            -0.63104           -0.545797            0.129837
Ar             2.30715             2.30815             4.62891           -0.992084           -0.897104            -0.54066
Ar             1.53836             2.32123             5.39642            -0.63681            0.402234            -1.15112
Ar             2.32645             1.55295             5.40184            0.927253            0.796072           -0.538103
Ar             1.55287             3.09338          0.00649033            0.804793              0.3759            0.922354
Ar             2.32705             3.85956          0.00703528            0.984741           -0.244466            0.968904
Ar             1.53535             3.86181            0.777516           -0.964133          -0.0165289            0.559556
Ar             2.31181              3.0945            0.767007            -0.53613            0.490454           -0.442245
Ar              1.5447             3.09142             1.55289          -0.0327502            0.181708            0.810556
Ar             2.32672             3.86007              1.5464            0.949791           -0.190203            0.161086
Ar             1.54716             3.86202             2.32047            0.242183          0.00449143            0.325678
Ar             2.31768             3.09492             2.32343           0.0508139            0.530424            0.618096
Ar              1.5534             3.08041             3.09977            0.838215           -0.915476             1.01216
Ar             2.30736              3.8608             3.09396           -0.977771           -0.115157            0.428388
Ar             1.53528             3.86546             3.85692           -0.964821            0.344832           -0.500591
Ar             2.31666             3.08205             3.87124          -0.0483091           -0.748165            0.918578
Ar             1.54122             3.09931             4.64297           -0.374364            0.968457            0.880538
Ar             2.31375             3.85227             4.64005            -0.33581           -0.966343            0.587442
Ar             1.54745             3.86941             5.40358            0.240826            0.734564           -0.453686
Ar             2.32334             3.08328             5.40107            0.616666            -0.61995           -0.645745
Ar              1.5367             4.63786           0.0122314           -0.836171            0.371148             1.53965
Ar             2.31416             5.40938             6.17081           -0.301329            0.139101             -1.0271
Ar             1.53722             5.41071            0.774081           -0.783935             0.21918              0.1919
Ar             2.32334             4.62781            0.779782             0.61249           -0.632335            0.808287
Ar             1.54574             4.64149             1.54721           0.0946873            0.736192            0.240799
Ar             2.31227             5.39562             1.55009           -0.491489            -1.22265            0.508463
Ar             1.55124              5.3987             2.31721             0.64056           -0.872918          -0.0046337
Ar             2.31259              4.6259             2.32325           -0.459809           -0.836889             0.60351
Ar             1.54511             4.64102             3.08653           0.0346228            0.682725           -0.304305
Ar             2.32544             5.39969             3.09777            0.825267           -0.847935            0.808625
Ar             1.53859             5.40606             3.85705           -0.638122           -0.204237           -0.485592
Ar             2.32469             4.62677             3.86869             0.75128            -0.73122            0.665955
Ar             1.53966              4.6384             4.63556           -0.506615            0.421073            0.146294
Ar             2.30916             5.40655             4.62757            -0.79358           -0.151232           -0.665473
Ar             1.55336              5.3951             5.40787            0.859484              -1.266          -0.0352851
Ar             2.31271             4.64068              5.3997           -0.444752            0.635283           -0.760045
Ar             3.09973          0.00870213             6.17228              1.0139             1.20993            -1.12522
Ar             3.85288            0.764494          0.00959384            -0.90223           -0.747962             1.43236
Ar              3.0857            0.779124            0.776035           -0.382346            0.644023            0.452448
Ar             3.85789          0.00211364            0.766974            -0.40775            0.400482           -0.414362
Ar             3.08972          0.00738301             1.54433           0.0183648             0.99949          -0.0697018
Ar             3.86274            0.780737             1.54333           0.0797359            0.808715           -0.145541
Ar             3.07985            0.776521             2.31763           -0.968297            0.441302           0.0417136
Ar             3.86606          0.00343117              2.3159            0.406305            0.534291           -0.125978
Ar             3.08474          0.00558836              3.0868           -0.479572            0.834094           -0.269597
Ar             3.86141            0.762801             3.08766          -0.0542262           -0.979421           -0.184496
Ar             3.08042            0.768409             3.85396           -0.918204           -0.374073           -0.800982
Ar              3.8699          0.00591655             3.85722            0.792703            0.809121           -0.474682
Ar             3.08869               6.173             4.64415          -0.0873163           -0.851323            0.978106
Ar             3.86612            0.768851             4.64053            0.418488           -0.250787            0.637411
Ar             3.09402            0.769628               5.403            0.444155          -0.0733663           -0.474408
Ar             3.85397             6.17189             5.41147           -0.799842            -1.14388            0.369198
Ar             3.09576             1.54009             6.16623             0.61423           -0.464223            -1.59347
Ar             3.86103             2.31454             6.17391          -0.0960534           -0.259207           -0.790841
Ar             3.09268             2.31363            0.772459            0.302976           -0.356025            0.209055
Ar              3.8691             1.54211            0.771296            0.707555           -0.271256          -0.0183881
Ar             3.08889             1.54416             1.55428          -0.0769491          -0.0705876            0.924061
Ar             3.86757             2.32467              1.5411            0.557831            0.742035           -0.385741
Ar             3.08787             2.32535             2.32672            -0.17147            0.814184            0.948286
Ar             3.87109             1.54413             2.32201            0.906757          -0.0658583            0.476999
Ar             3.09725               1.544             3.08836            0.769527          -0.0714197           -0.115166
Ar             3.85325             2.30998             3.09775           -0.873036           -0.723701            0.815514
Ar             3.08138             2.31065             3.85321           -0.811114           -0.651612           -0.875479
Ar             3.85429             1.55281             3.85256           -0.763595            0.802913           -0.940575
Ar             3.08804             1.54562              4.6361           -0.157215           0.0654056            0.177319
Ar             3.86309             2.31106             4.63912            0.115195           -0.611613            0.482162
Ar             3.09579              2.3144             5.41248            0.619074           -0.281883            0.595481
Ar              3.8536             1.55175             5.40087            -0.83576            0.679968           -0.645559
Ar             3.08391             3.08603             6.17016           -0.567138           -0.348715            -1.16598
Ar             3.86889              3.8645             6.16918            0.687668            0.254745            -1.21529
Ar             3.09212             3.85679             0.76866            0.243511           -0.510575            -0.21992
Ar             3.87175             3.09111            0.766488            0.974573            0.150724           -0.346902
Ar             3.08396             3.08862              1.5545           -0.560046          -0.0916438            0.951451
Ar             3.85946             3.85253             1.54219           -0.247428           -0.935292            -0.27437
Ar             3.09032             3.86535              2.3121           0.0765039            0.330321           -0.509224
Ar             3.85264             3.09234             2.32726           -0.933186            0.280643             1.00364
Ar             3.08813             3.09145             3.08278           -0.137907             0.18165           -0.683888
Ar             3.86657             3.85231             3.08029            0.462202           -0.960839           -0.928592
Ar             3.08878             3.85513             3.86422          -0.0793609             -0.6722            0.230131
Ar             3.86292             3.07975             3.86495           0.0968421           -0.972413            0.294446
Ar             3.08234             3.08875             4.63335           -0.725918          -0.0699579           -0.100345
Ar              3.8623             3.86695             4.63013           0.0347548            0.499176           -0.419068
Ar             3.09094              3.8538             5.39817            0.135062           -0.810059           -0.887662
Ar             3.87154             3.08704             5.40979            0.953967           -0.254314            0.329968
Ar             3.08509             4.63158             6.16654           -0.442931           -0.258894            -1.53145
Ar             3.86439             5.39625          0.00575801             0.24452            -1.18845            0.887807
Ar             3.08757             5.40893            0.780846           -0.194419         -0.00850255            0.949227
Ar             3.86877             4.63156            0.769656            0.683201           -0.255211           -0.187543
Ar             3.09641             4.63879              1.5439            0.674966            0.461216           -0.108233
Ar              3.8576             5.41436             1.54507           -0.439519            0.499091           0.0257881
Ar             3.09114             5.40258               2.325             0.16031           -0.565859            0.781654
Ar              3.8535             4.63668             2.32203           -0.840698            0.249337            0.483711
Ar             3.08377             4.64314             3.08741            -0.57506            0.906369           -0.219157
Ar             3.85575             5.40211             3.08714           -0.623736           -0.662508           -0.244173
Ar             3.09094             5.41006             3.85882            0.134732            0.159549           -0.314572
Ar             3.85737             4.62447             3.85258           -0.455355           -0.958827           -0.924708
Ar             3.08337             4.63217             4.62841           -0.616736           -0.214704           -0.591963
Ar             3.85287             5.40263               4.626           -0.905007           -0.483932           -0.809885
Ar             3.08017             5.40695              5.3974           -0.935975         -0.00443404           -0.944999
Ar             3.86106             4.62748             5.41563          -0.0873249           -0.688581            0.768584
Ar             4.62992           0.0121131             6.16938           -0.437544             1.58501            -1.34712
Ar             5.40098            0.766834          0.00770714           -0.592927           -0.440787             1.02412
Ar             4.63216            0.771168            0.773098           -0.219328           -0.072076            0.115242
Ar             5.39952             6.17368            0.768692           -0.692628            -1.03462           -0.265494
Ar             4.63844          0.00877211             1.54612             0.40397             1.12031            0.115962
Ar              5.4132            0.780097             1.54066            0.662937            0.799199           -0.408447
Ar             4.63895            0.771126              2.3085            0.455644           -0.148187           -0.865978
Ar             5.39839           0.0026248             2.32319           -0.848399            0.427442            0.593498
Ar             4.63017           0.0104565             3.09439           -0.417147             1.20272            0.479709
Ar             5.39671            0.777625             3.09306            -1.02613            0.501585            0.345431
Ar             4.62516            0.777106             3.85826           -0.891466            0.440153           -0.369844
Ar             5.40487          0.00393922             3.85615           -0.269608            0.587463           -0.577289
Ar             4.63875           0.0061372             4.62625            0.458273            0.877821           -0.805596
Ar             5.40926            0.768982             4.62645            0.130618           -0.309677            -0.76604
Ar             4.62549            0.773723             5.41147           -0.878172            0.214051            0.284404
Ar              5.4037              6.1661             5.40371           -0.408821             -1.6933           -0.378691
Ar             4.63332             1.53458           0.0031873           -0.078884            -1.01504            0.596034
Ar             5.39608             2.32228             6.17164            -1.18688            0.512125            -1.00472
Ar             4.63791             2.32488            0.767771            0.349391            0.772328            -0.25468
Ar             5.41497             1.54024            0.763843              0.7482           -0.481035           -0.816691
Ar             4.63783             1.54246             1.55393            0.340089           -0.235078            0.916787
Ar             5.39694             2.32625             1.55379           -0.956667            0.909033            0.881967
Ar             4.62974             2.31892             2.30878           -0.456736            0.164849           -0.844727
Ar             5.40748             1.53822             2.31922           0.0983334           -0.657219            0.200916
Ar             4.63866             1.55354             3.09359             0.43011            0.867408            0.402709
Ar             5.41038             2.31627             3.09946            0.384302          -0.0948859            0.987792
Ar             4.64251             2.32511             3.85896            0.807445            0.789724           -0.303953
Ar             5.40865             1.53532             3.85373            0.140472            -0.94019           -0.821932
Ar             4.63185             1.54101             4.63597           -0.250024           -0.372352            0.186381
Ar             5.41106             2.30737             4.63828            0.382144           -0.970158            0.391878
Ar             4.62668              2.3182             5.39795           -0.746969            0.108209           -0.893292
Ar             5.40111             1.53771             5.40927           -0.626867           -0.719114           0.0865035
Ar             4.63057             3.08665             6.17224           -0.357154           -0.294779           -0.979506
Ar             5.40057             3.85726          0.00581247           -0.645906           -0.465918             0.84316
Ar             4.63937             3.86951            0.770869            0.499449            0.747049          -0.0674256
Ar             5.39697             3.09866            0.765743            -1.00207             0.90341           -0.496936
Ar              4.6408             3.09405             1.53813            0.642525            0.435836           -0.683173
Ar             5.41313             3.86443             1.54753            0.525125            0.238137             0.27061
Ar             4.62469             3.86985             2.31144           -0.943764            0.785297           -0.562178
Ar             5.41036             3.08777             2.30941            0.318287            -0.18357           -0.781962
Ar             4.64033             3.09938             3.09013            0.592795            0.979192           0.0639103
Ar               5.403             3.86484             3.08531           -0.475849            0.280953           -0.414459
Ar             4.63849             3.85516             3.86762            0.412207           -0.679493            0.559992
Ar             5.40199              3.0951             3.85809           -0.455129            0.547336           -0.389565
Ar             4.64156             3.09123              4.6354            0.710644            0.166424            0.100975
Ar             5.41586             3.86428             4.63584            0.854161            0.225933            0.166485
Ar             4.63272             3.86564             5.39608           -0.171358            0.364352            -1.13418
Ar             5.41392              3.0795             5.41036            0.569216             -1.0017            0.322059
Ar             4.63735             4.63888          0.00766749            0.292958            0.471873             1.08059
Ar              5.4051             5.39854             6.17504           -0.200739           -0.891274           -0.818141
Ar             4.63688             5.39989            0.773174            0.248718           -0.795917            0.153516
Ar             5.40957             4.63103            0.768555            0.253577           -0.330458           -0.339685
Ar             4.62662             4.63594             1.54724            -0.74667            0.175281            0.243672
Ar             5.41046             5.40167             1.55373            0.245316           -0.665193             0.87374
Ar             4.64453             5.39798             2.32428             1.03441            -1.06071            0.701352
Ar             5.40939              4.6374             2.31032           0.0358803            0.328212           -0.684412
Ar             4.63453             4.62653             3.08418           0.0389197             -0.7541           -0.535994
Ar             5.40778             5.39915             3.09962             0.01396           -0.958086             1.00383
Ar              4.6399             5.39461             3.86163            0.555676            -1.38762           -0.029815
Ar             5.40724              4.6329             3.85586          -0.0577649           -0.119329           -0.610486
Ar             4.62727             4.63835             4.63291           -0.687154            0.415796           -0.123196
Ar             5.41107             5.40566             4.63097            0.265457            -0.25245           -0.334138
Ar             4.63657             5.40525             5.40397            0.245461            -0.23581           -0.369119
Ar             5.40865             4.63051             5.41046           0.0932468           -0.381478            0.194695
