256
Position of argon atoms in fcc cell after one integration
Ar             6.14876            0.062647           0.0650237           -0.874617             2.70014             2.46275
Ar            0.764425            0.788069             6.09323            0.453672            0.299881            -4.07857
Ar             6.11883            0.766279            0.762958            -2.35013           -0.194509           -0.542592
Ar            0.810453             6.10762            0.801194              1.4401            -3.37359            0.596351
Ar             6.13482           0.0451988             1.54541            -1.40568             1.83222         -0.00452369
Ar            0.791267            0.815046             1.54423             1.00949             1.26183          -0.0591498
Ar             6.15179            0.784474             2.35165           -0.786294            0.302362             1.07246
Ar            0.787669             6.11069             2.30973            0.351474            -2.51267           -0.299829
Ar             6.12434           0.0481921             3.08471            -2.00264             1.61287           -0.114546
Ar            0.819904            0.782166             3.11163             1.48309            0.336096            0.725649
Ar           0.0672642            0.786503             3.83734             3.00605            0.546808           -0.745616
Ar            0.767009             6.11361             3.83562            0.266159            -2.82999           -0.732123
Ar           0.0439565           0.0632384             4.63434             2.28448             2.56303            0.109277
Ar            0.768528            0.736056             4.65122           -0.293705            -1.34765            0.570713
Ar             6.11527            0.746058             5.41595            -2.84643           -0.717766           -0.323585
Ar            0.781943           0.0258008             5.40905            0.361747            0.755093          -0.0690274
Ar            0.053663             1.54509           0.0534624             2.54236          -0.0768331             2.25316
Ar            0.774837             2.34888           0.0454609           0.0587814             0.95993             2.05571
Ar             6.13737             2.33512            0.798728            -1.88547            0.491427            0.763885
Ar            0.761468              1.5293            0.768387           -0.159904           -0.534406           -0.228962
Ar             6.15338             1.51097             1.56591            -1.26737            -1.18281            0.645477
Ar            0.775623             2.33955             1.53168            0.455434            0.695841           -0.410684
Ar               6.148             2.29449             2.34212           -0.872966           -0.713162            0.760035
Ar            0.812321             1.51294             2.34309             1.47539            -1.13998             0.83066
Ar             6.11957             1.53715             3.06683            -2.09771           -0.247955           -0.789681
Ar             0.82117             2.34299             3.10539             1.48235            0.794825            0.584549
Ar             6.14459             2.33301             3.85937            -1.28636            0.479969          -0.0666518
Ar            0.770115             1.57754              3.8893            0.258087             1.02827            0.938378
Ar             6.11438             1.56146             4.60381            -2.34681            0.633477           -0.943859
Ar            0.797023             2.30027             4.60588            0.960649           -0.614572           -0.851404
Ar           0.0441916             2.33466             5.39554             2.25617            0.694065           -0.450006
Ar            0.812264             1.53198             5.40292             1.12997           -0.512488           -0.342409
Ar            0.057067             3.08369             6.13101             2.35962           -0.241155            -2.43307
Ar            0.798925             3.87995             6.13521            0.791824            0.549229            -2.14566
Ar             6.13938             3.84229            0.773187            -1.94948           -0.602149           0.0547417
Ar            0.759931             3.12286            0.796868            0.156418             1.08881             1.02107
Ar             6.11685             3.09257             1.58048            -2.47894            0.110439             1.13068
Ar            0.780068             3.85969             1.50538            0.444527          -0.0827887            -1.41439
Ar           0.0673856             3.82826             2.34573             3.05877            -1.04983            0.973055
Ar            0.809107             3.08462             2.31701             1.01927           -0.121058          -0.0653151
Ar             6.12728             3.11067             3.11527            -2.19304             0.68794            0.818336
Ar            0.746491              3.8739             3.06995           -0.766395            0.424798           -0.702202
Ar             6.12213             3.86676             3.86345            -2.59005            0.151625           0.0480754
Ar            0.781913             3.11864             3.87877            0.615459            0.881858             0.51306
Ar             6.11974             3.05881             4.63873            -2.30421           -0.971602            0.194919
Ar            0.796785             3.86499             4.63132            0.717303            0.078335           -0.105738
Ar             6.11759              3.8449              5.3933            -2.38957           -0.549713           -0.509943
Ar             0.79759             3.09776             5.37922            0.824932            0.206139           -0.866812
Ar             6.13822              4.6641           0.0681178             -1.4574             1.15793             3.08751
Ar            0.811372             5.38261            0.023457             1.38321           -0.862153            0.884742
Ar              6.1487             5.37739            0.758973            -1.12707            -1.08998           -0.455449
Ar            0.821752              4.6455            0.752392             1.93652            0.396198            -0.72014
Ar           0.0602589             4.61306              1.5669             2.34104           -0.528746             0.87892
Ar            0.788554             5.39681             1.57265            0.295907           -0.269052             0.99843
Ar           0.0490002             5.37817             2.27836             1.87292           -0.866804            -1.28193
Ar            0.742117             4.64492             2.28631            -1.25556            0.483637            -1.06128
Ar           0.0452834              4.6378             3.10089             2.33868            0.188791            0.408424
Ar            0.764701             5.37426             3.06913           -0.360432           -0.836066           -0.624676
Ar             6.12596             5.40856             3.85834            -2.48337           -0.319282           -0.134297
Ar            0.767523             4.62323             3.84683          -0.0659221           -0.360007           -0.466143
Ar           0.0647807             4.62614             4.62239              2.8129           -0.186755           -0.255699
Ar            0.770936             5.41735             4.60694          0.00667585        -0.000855186           -0.808136
Ar           0.0286922             5.37702             5.38344             1.26748           -0.869546           -0.687112
Ar            0.764569             4.64574              5.3799           -0.418114            0.448228           -0.944431
Ar             1.51335           0.0685733           0.0621637            -1.05889             3.10192             2.71667
Ar             2.33966            0.750913            0.043794            0.698964           -0.753454             2.02703
Ar             1.56788            0.763413            0.776653             0.71297           -0.492961           -0.139133
Ar             2.29889           0.0289405            0.787984           -0.645726            0.876862            0.236049
Ar             1.54405           0.0625263             1.55502          -0.0921242             3.47377             0.34303
Ar             2.32058            0.793847             1.58195             0.17023            0.625064             1.19489
Ar             1.53812            0.748466             2.30085           -0.327017           -0.559103           -0.557071
Ar             2.28633             6.09726             2.29998            -1.02227             -3.4531           -0.575306
Ar             1.56307           0.0628694             3.11118            0.504145             2.62803            0.746081
Ar             2.30776            0.753047             3.09253           -0.284178           -0.845158            0.230174
Ar             1.55361            0.756387             3.83786             0.31111           -0.676256           -0.919032
Ar             2.33712           0.0499536             3.87447            0.666681             1.87964            0.323335
Ar             1.56289           0.0344445             4.66275            0.536884             1.56129            0.947831
Ar             2.31325             0.79434             4.62784           -0.130618            0.637296           -0.270029
Ar             1.53034            0.781624             5.41949           -0.740981            0.181262           0.0336141
Ar             2.33502             6.12833             5.42575            0.677065            -2.26653            0.640509
Ar             1.51219             1.55821           0.0571971             -1.0538            0.452314             2.53517
Ar             2.29463             2.30535             6.12356             -0.6854           -0.364795            -2.55865
Ar             1.58103              2.2911            0.781613             1.11972           -0.945396            0.434587
Ar             2.34135              1.5785            0.758687             0.69061             1.11418           -0.115512
Ar             1.51755             1.57989             1.53843           -0.990832               1.099            -0.20451
Ar             2.34538             2.32564             1.50464            0.866211             0.21256             -1.3703
Ar             1.56773             2.34402             2.28136            0.573669            0.880406            -1.13708
Ar             2.35137             1.56551             2.29199             1.17918            0.485324           -0.877196
Ar             1.52939             1.55063             3.05382           -0.722666            0.155504            -1.15675
Ar             2.31306             2.31788             3.11112           -0.102845             0.11813            0.694405
Ar             1.51072             2.32447             3.84009             -1.2474            0.298127           -0.827251
Ar             2.34341             1.52922             3.89892            0.928097           -0.460413             1.27408
Ar             1.52008             1.52564             4.64086           -0.863962           -0.511426            0.319544
Ar             2.28092             2.28363             4.61441            -1.08391            -1.06722           -0.612066
Ar             1.52119              2.3323             5.36374           -0.735796            0.487703            -1.29685
Ar             2.35309             1.57443             5.38989             1.23416            0.947773           -0.286472
Ar             1.57532             3.10323           0.0416904             1.01039            0.405592             1.69289
Ar             2.35472             3.85185           0.0475914             1.24353           -0.397199             2.22476
Ar             1.50632             3.86124            0.795758            -1.40226          -0.0293769            0.877315
Ar             2.29637             3.10841            0.756702           -0.725569            0.642637           -0.532598
Ar             1.54149             3.09573             1.57613           -0.254183            0.139839             1.07475
Ar             2.35309             3.85462             1.55094             1.17047           -0.251466             0.20383
Ar             1.55485              3.8619             2.32927            0.394642          -0.0188252            0.377996
Ar             2.31943             3.10913             2.33988            0.100325            0.598683            0.690145
Ar             1.57502             3.05416             3.12747            0.878988            -1.22322             1.21456
Ar             2.28037             3.85781             3.10424            -1.18297           -0.121974            0.362168
Ar             1.50735             3.87434              3.8435            -1.28196            0.350105            -0.56323
Ar             2.31611             3.06158             3.89584           0.0223983           -0.887035             1.03976
Ar             1.52933             3.12605              4.6696           -0.600675             1.18013             1.28692
Ar             2.30528              3.8252             4.65799           -0.333618            -1.22001            0.863308
Ar             1.55186             3.88841             5.38819           0.0924849            0.756666           -0.626133
Ar              2.3413             3.06738             5.38266            0.852525           -0.628715           -0.705057
Ar             1.50919             4.65024           0.0709577            -1.49592             0.65416             3.08533
Ar             2.30583             5.41319             6.14094           -0.364991            0.371695            -1.12227
Ar              1.5113             5.40897            0.777761            -1.40146           -0.216013          0.00389791
Ar             2.34004             4.61176            0.802298            0.720887           -0.646783            0.884897
Ar             1.54849             4.66469             1.55387            0.137455             1.16665            0.295261
Ar             2.29806             5.36227             1.56324           -0.669143            -1.25996            0.564596
Ar             1.56902             5.37565             2.31572            0.806691           -0.823334           -0.140179
Ar             2.29925              4.6038             2.33984           -0.625295           -0.914676            0.727255
Ar             1.54653             4.66144             3.07783            0.088237            0.965771           -0.401256
Ar             2.34922             5.37227             3.11872             1.11942            -1.21588            0.843414
Ar             1.51917             5.39823             3.84438           -0.939909           -0.244318           -0.513865
Ar             2.34637             4.60898             3.88674             1.01286           -0.666196            0.785169
Ar              1.5262             4.65141             4.64251           -0.562774            0.631245            0.451564
Ar             2.28812             5.39431             4.61138           -0.875323           -0.777442            -0.58187
Ar             1.57878             5.36049             5.40213              1.2339            -1.37379           -0.304279
Ar             2.30021             4.65996             5.38095           -0.577635            0.963589           -0.605064
Ar             3.12901           0.0684057             6.10606             1.39955             4.07612             -4.7203
Ar             3.82776            0.741951           0.0896571            -1.14971            -1.25734             5.55337
Ar             3.07586            0.794262              0.7902           -0.381004            0.534394            0.539045
Ar             3.84648           0.0218747            0.761386           -0.501463             1.09225           -0.195545
Ar             3.09068           0.0442111             1.54044           0.0612097             1.71589           -0.252095
Ar             3.86536            0.801235             1.53904             0.13784            0.818254           -0.207293
Ar             3.05304            0.788453             2.31803            -1.18717            0.460443          -0.0325935
Ar              3.8771            0.024445             2.31292            0.477674            0.965942          -0.0949018
Ar             3.07188           0.0409099             3.08061           -0.542085             1.79814           -0.195223
Ar             3.86043             0.73297             3.08382         -0.00288565            -1.46568          -0.0946461
Ar             3.05346            0.756451              3.8311            -1.29314           -0.678923            -1.04874
Ar             3.89268           0.0331168             3.84347             1.06229             1.13902           -0.654502
Ar              3.0866             6.14189             4.67218          -0.0680498            -1.43073             1.29968
Ar             3.87872            0.765676             4.65986            0.614107           -0.102917            0.915553
Ar             3.10641            0.779058             5.38785            0.545262            0.699451           -0.553165
Ar             3.83079             6.11026             5.41946            -1.10971            -4.08839            0.420493
Ar             3.11258               1.528             6.10844            0.739065           -0.479593            -2.85455
Ar             3.85762               2.308             6.14107           -0.202072           -0.254633            -1.63048
Ar             3.09959             2.30338            0.783686            0.210571           -0.473385            0.478513
Ar              3.8885             1.53343            0.772671            0.851534           -0.462886          0.00174428
Ar             3.08491              1.5408             1.57845            -0.28618           -0.224444             1.02017
Ar             3.88307             2.34453             1.52931             0.68885            0.837905           -0.558283
Ar             3.08305             2.34823             2.35279           -0.209556             1.03686             1.14381
Ar             3.89588             1.54236             2.33449             1.07459          -0.0691187            0.506422
Ar             3.11972             1.54357             3.08652             1.06709            0.079066          0.00611829
Ar             3.82812             2.28827             3.12101            -1.16578            -1.07301             1.08536
Ar             3.05979             2.29219             3.82825           -0.902987           -0.843019            -1.14694
Ar             3.83311             1.57606             3.82527           -0.947177             1.10006             -1.2991
Ar             3.08281             1.54639              4.6419           -0.282865         -0.00627479            0.309337
Ar             3.86697             2.29361             4.65414             0.21399           -0.803868            0.763176
Ar             3.11311             2.30538             5.43185            0.783079            -0.47899             1.01475
Ar             3.82942             1.57087             5.38497            -1.15068            0.896626           -0.490537
Ar             3.06759             3.07701             6.12517           -0.754359           -0.367845              -2.313
Ar             3.88758             3.87214             6.12738            0.802179             0.37754            -1.94472
Ar              3.0968             3.84355            0.766996            0.082965           -0.533506          -0.0806093
Ar             3.89868             3.09481            0.768091              1.1767            0.134257            0.310937
Ar             3.06825             3.08672             1.57996           -0.705859           -0.047473             1.09031
Ar             3.85301             3.82742             1.53389           -0.264209            -1.06569           -0.384406
Ar             3.09269             3.87329             2.29741            0.113644             0.28097            -0.67999
Ar             3.82595             3.10129             2.35557            -1.22975            0.475164             1.30003
Ar             3.08556             3.09539              3.0621          -0.0372973             0.10558            -1.02577
Ar             3.88005              3.8255              3.0535            0.630903            -1.21353            -1.25667
Ar             3.08664             3.83811             3.87155          -0.0894611           -0.661543            0.373477
Ar             3.86598             3.05383             3.87261            0.156042            -1.08775            0.308231
Ar             3.06113             3.08914             4.63085            -1.00373             0.14773          -0.0889844
Ar             3.86365             3.88127              4.6191            0.081061            0.655837           -0.452407
Ar             3.09453             3.83182              5.3738            0.147112           -0.949537           -0.994849
Ar             3.89851             3.07959             5.42214             1.24044           -0.356784             0.71976
Ar             3.07365             4.62562             6.11346           -0.453333           -0.216022            -2.55371
Ar             3.87177             5.36006           0.0401052            0.362716            -1.54833             1.59218
Ar             3.08321             5.39992             0.80588           -0.136691            -0.54175            0.885448
Ar             3.88888             4.62697             0.76577            0.960344          -0.0720258           -0.251081
Ar             3.11407             4.65318             1.53953              0.7241            0.710618           -0.248951
Ar             3.84472             5.41431             1.54519           -0.604635            -0.36644          -0.0294523
Ar             3.09644             5.38198             2.34746            0.286305           -0.962562             1.04917
Ar             3.83053             4.64503             2.33565            -1.00497            0.437805            0.614635
Ar             3.06822             4.67234             3.08057           -0.675044             1.52032           -0.351598
Ar             3.83746             5.37827             3.07982           -0.871545            -1.05298           -0.361021
Ar             3.09441             5.40716             3.85003            0.138293           -0.268857           -0.393577
Ar             3.84521             4.60055             3.82882            -0.51262           -0.930392           -0.946386
Ar             3.06631             4.62688             4.61186           -0.760269           -0.195218           -0.750173
Ar             3.82782              5.3894             4.60572            -1.10607           -0.450331           -0.792987
Ar             3.05415             5.40829             5.37334            -1.15646            0.217761           -0.929174
Ar             3.85881             4.60738             5.43136           -0.101099           -0.960282            0.590525
Ar              4.6187           0.0733813             6.10919           -0.441898             3.24601            -3.52582
Ar             5.38669            0.759578           0.0523212           -0.460764           -0.225222             2.58378
Ar             4.62573            0.771439            0.778214           -0.315539           0.0475147            0.238766
Ar             5.38358             6.11477            0.765356           -0.540457             -3.5811          -0.0983131
Ar             4.64931           0.0476308             1.54875            0.460581             1.79867            0.117011
Ar             5.43392            0.802043             1.52971             1.05927            0.899732           -0.471041
Ar             4.65144            0.765077             2.28408            0.545465           -0.360544            -1.11018
Ar             5.37729           0.0191929             2.33882           -0.769696            0.746277            0.648948
Ar             4.61834           0.0449927             3.10804           -0.551888             1.36952             0.63503
Ar             5.36979             0.79027             3.10257             -1.0345            0.514101            0.428023
Ar             4.60263            0.785786             3.84781           -0.902206            0.193503            -0.47553
Ar             5.39651           0.0291722             3.84043            -0.27699             1.31163            -0.68173
Ar             4.65286           0.0377959             4.60441            0.674696             1.43312           -0.936259
Ar             5.40567            0.760148             4.60708           -0.384799             -0.4609           -0.770771
Ar             4.60235             0.77967             5.41049           -0.951833           0.0862983           -0.199052
Ar             5.38713             6.10391             5.39425           -0.880015            -3.07314           -0.212013
Ar             4.63324             1.50671           0.0313117            0.084703            -1.21627             1.45897
Ar             5.36248             2.33751             6.13581            -1.31987            0.746762            -1.63267
Ar              4.6469             2.34708            0.773497            0.356046             1.01969            0.632455
Ar             5.42871             1.52376            0.741564            0.298054           -0.894919            -1.03019
Ar             4.64628             1.53537             1.58031            0.319006           -0.342509             1.21529
Ar               5.372             2.35281             1.57792            -1.03848             1.26584              1.0779
Ar             4.61781             2.32201              2.2839           -0.480399           0.0546358             -1.1805
Ar             5.41312             1.51942             2.32463            0.405233           -0.862923            0.239786
Ar             4.65102             1.57656             3.10521            0.570971            0.954586            0.538781
Ar             5.42315             2.31283             3.12756            0.666451           -0.197735             1.28536
Ar             4.66431              2.3469             3.84968            0.934632            0.954425           -0.457327
Ar             5.41039             1.50988             3.83042           0.0500422            -1.08774            -1.06978
Ar             4.62499             1.53119             4.64355           -0.298205           -0.409107            0.441972
Ar             5.42004             2.28131             4.64909            0.419307            -1.12366            0.463737
Ar             4.60675             2.32261             5.37536           -0.871453            0.280918           -0.841208
Ar             5.38575             1.51745             5.40506           -0.454996           -0.889309           -0.299884
Ar             4.62192             3.07785             6.12835           -0.347197           -0.424566            -2.40561
Ar             5.38328             3.84475           0.0399759           -0.670973           -0.539126             1.72134
Ar              4.6538             3.88963            0.770002            0.684901             0.86191           -0.138074
Ar             5.37065             3.12399            0.758188            -1.02775             1.15604            -0.25655
Ar             4.65891             3.10415             1.51763            0.820463            0.328455           -0.974759
Ar             5.42312             3.86946             1.55419            0.379578            0.124301            0.238761
Ar             4.59982             3.89167             2.29765            -1.04963            0.967214           -0.506009
Ar             5.41873              3.0816             2.28551            0.455125           -0.346604            -1.21797
Ar             4.65643               3.127             3.09343            0.691472             1.24908            0.230663
Ar             5.38654             3.87147             3.07587           -0.728378            0.220749           -0.297925
Ar             4.65016             3.83584             3.88245            0.533142           -0.888478            0.613448
Ar             5.39079             3.10981              3.8465           -0.432485            0.629933           -0.562068
Ar             4.66012             3.09612             4.63788            0.757482            0.233419             0.09366
Ar             5.43723             3.86962             4.64185               0.932            0.178868            0.329834
Ar             4.62656             3.87538             5.36548           -0.350157            0.407744            -1.17654
Ar              5.4186             3.05194             5.41871           -0.198345            -1.21111            0.412748
Ar             4.64467             4.65381           0.0561748            0.276225            0.746705             2.75654
Ar             5.39817             5.37382             6.12174           -0.351278           -0.974548            -3.57448
Ar             4.64339             5.37801            0.776703            0.267519           -0.805007          -0.0299195
Ar             5.41758             4.62201            0.759548            0.478757           -0.397489           -0.506556
Ar              4.6081             4.64189             1.55382           -0.718066            0.302896            0.282879
Ar             5.40926             5.37743             1.57707           -0.320549            -1.14014             1.01066
Ar             4.67499             5.36378             2.34262             1.42987            -1.51677            0.744616
Ar             5.40098             4.64937             2.29098            -0.55221            0.686755           -0.882752
Ar             4.63748             4.60806              3.0693            0.216428           -0.702897           -0.664626
Ar              5.4053             5.36653             3.12846           -0.135602            -1.47095             1.34957
Ar             4.65629             5.35352             3.86141            0.787888            -1.68763           0.0219954
Ar             5.40153             4.63249              3.8383           -0.297188            0.138982            -0.81905
Ar             4.60966              4.6511               4.631           -0.716375            0.612306          -0.0285499
Ar             5.41244             5.39589             4.62239         -0.00623744           -0.345839           -0.342716
Ar             4.64615              5.3972             5.39166            0.573181           -0.286442           -0.492616
Ar             5.40782             4.62051             5.40847           -0.075001           -0.402718           -0.190813
