256
Position of argon atoms in fcc cell after one integration
Ar              6.1282           0.0107305             6.14674            -7.74979             1.65864            -4.91539
Ar            0.768509            0.831911           0.0399532           -0.598549             9.01775               6.127
Ar           0.0380962            0.811167            0.726651             5.75991             5.89496            -6.89969
Ar            0.727644           0.0172453            0.774586            -6.76149             2.59669             0.33095
Ar             6.16532             6.13358             1.60472            -2.57959            -7.08412             9.11833
Ar             0.76717            0.805242             1.52655           -0.735567             5.03392            -2.76021
Ar             6.12557            0.750869             2.37651            -8.21129            -3.30132             9.00562
Ar            0.705818             6.11405             2.28727            -10.3479            -9.84937            -4.52924
Ar             6.15122             6.11471             3.15492            -4.40927            -9.96657             9.96543
Ar            0.812816            0.830322             3.06772             6.15804             8.83953            -3.28297
Ar           0.0460404            0.802145             3.80319              6.9507             4.45351            -8.87199
Ar            0.783413           0.0634269             3.79891             1.60547             9.48911            -9.50993
Ar             6.14476             6.11593             4.64131              -5.543            -9.71018             1.06884
Ar            0.739424            0.775819             4.59802            -4.95988            0.556087            -5.49324
Ar             6.11373             0.79023               5.395            -10.0555             2.73017            -1.80003
Ar            0.779086            0.052069             5.37525            0.981944             7.82456            -4.76816
Ar            0.013034             1.56169             6.15949             1.95976             2.56783            -3.08815
Ar            0.741889             2.38184             6.15799            -4.63722             9.88892            -3.57643
Ar           0.0284629             2.32972            0.737652             4.30739             1.89055            -5.41552
Ar            0.710295             1.52453            0.784509            -9.34928            -2.99294             1.82224
Ar           0.0218763             1.60719             1.51897             3.35605             9.45746            -3.83081
Ar             0.80096             2.26052             1.52052             4.38839            -8.55854            -3.65154
Ar             6.12714             2.33222             2.25511            -7.93644             2.27995            -9.41573
Ar            0.714786             1.50852             2.27415            -8.76534             -5.4564            -6.47607
Ar           0.0450771             1.58544             3.08448             6.75576              6.1952           -0.748179
Ar            0.805134             2.36561              3.0697             5.01444             7.42208             -3.0229
Ar          0.00919452             2.29622             3.85413             1.40103            -3.15226            -1.16454
Ar            0.832974             1.49518             3.90515             9.21072            -7.46715             6.51033
Ar             6.11432             1.50811             4.58168            -9.85564            -5.57609            -8.03619
Ar            0.826098             2.32342             4.62407             8.17967            0.953162            -1.56284
Ar               6.177             2.29139             5.44292           -0.468099            -3.91893             5.45132
Ar              0.7522             1.49836             5.40746            -3.09129            -7.02234           0.0986169
Ar           0.0447328             3.15348           0.0337793             6.77432             9.68385             4.99609
Ar            0.790587             3.87973             6.14698              2.7835             2.66334            -4.96569
Ar             6.12101             3.82893            0.805619            -9.26215            -5.06471             5.09902
Ar            0.800241             3.09844            0.753897             4.24764             1.34821            -2.88393
Ar           0.0245291             3.14458             1.51572             3.36993              8.3066            -4.35702
Ar            0.749421             3.84313             1.57232             -3.4518            -2.81322             4.20273
Ar             6.11512             3.92024             2.33188            -9.98965             8.87131              2.2731
Ar            0.766849              3.1159             2.35646           -0.838641             4.00127             5.97704
Ar           0.0361819             3.13041             3.06882             5.41301             6.20301            -3.08761
Ar            0.715025             3.91924             3.04392            -8.75767             8.73655            -6.92978
Ar         0.000853647             3.84393             3.83607             0.13576            -2.73617            -3.88221
Ar            0.777694             3.08274             3.81908            0.853316            -1.01528            -6.48537
Ar          0.00486724             3.10851             4.58694            0.768648              2.8633            -7.14057
Ar            0.781614             3.83497             4.66418             1.39507            -4.07814             4.55961
Ar           0.0649666             3.84032             5.39026             9.81459            -3.28215            -2.48249
Ar            0.726242             3.02432             5.47012            -7.09709            -9.79604             9.51729
Ar             6.12794             4.68929             6.11815            -7.89192             8.33399             -9.3968
Ar            0.790331             5.44302              6.1386              2.7242             5.51898            -6.53004
Ar           0.0222738             5.43777            0.794762              3.3195             4.64807             3.39958
Ar            0.756419             4.67971             0.79909            -2.37592             6.85668             4.08578
Ar          0.00737676             4.68777             1.51193             1.12109             8.09655            -4.91961
Ar            0.710069              5.4012             1.59294            -9.52981           -0.859032             7.28533
Ar             6.13212             5.40158             2.34752            -7.12758           -0.886284              4.6193
Ar            0.757977             4.59148             2.33978             -2.2317             -6.4298             3.38531
Ar             6.15381             4.63895             3.04017            -3.87518             0.72572             -7.4331
Ar            0.807475             5.34518             3.10799             5.31579            -9.36024             2.83913
Ar             6.12242              5.4204             3.82044            -8.72034             1.99708              -6.282
Ar            0.781059             4.69729             3.85392             1.29271             9.50104            -1.16371
Ar           0.0221847             4.64797             4.60027             3.35221             2.06057            -5.13917
Ar             0.77465             5.46758              4.5773            0.236796              9.1171            -8.64499
Ar           0.0575826             5.47111             5.45242             8.37624             9.73422             6.87175
Ar            0.821771             4.62617             5.38115             7.51006            -1.22559            -3.87995
Ar             1.48875             6.12305           0.0508985            -8.43123            -8.43964             7.30568
Ar             2.29058              0.7681           0.0386262            -3.99803           -0.636888             5.86685
Ar             1.48394            0.807249            0.798519            -9.15848             5.27318             3.95714
Ar             2.35447             6.12217            0.833944             5.68624            -8.93976             9.33658
Ar             1.50709             6.15371             1.48798            -5.70455            -3.84883            -8.59628
Ar             2.37055            0.773184             1.53057             8.09295           0.0905797            -2.16603
Ar             1.49957            0.713459             2.28467              -6.798             -8.9969            -4.90437
Ar             2.34704             6.13857              2.2808             4.54389            -6.49667             -5.5056
Ar             1.59891           0.0137997             3.02511             8.21666             2.05196            -9.70857
Ar             2.27241            0.738837             3.08891            -6.75509            -4.99903           -0.103576
Ar             1.50396            0.729042             3.80692            -6.10556            -6.52406            -8.30571
Ar             2.29923             6.17317              3.8172              -2.718            -0.91248            -6.79227
Ar             1.54954          0.00779083             4.67362             0.76387             1.11168             5.93893
Ar             2.36825            0.804078             4.62666             7.70478             4.81891            -1.14349
Ar             1.60728            0.818869             5.34963             9.46663             7.13593             -8.7036
Ar             2.33195           0.0433989             5.41425             2.25246             6.55837             1.14385
Ar             1.53993             1.60174             6.11289           -0.700157             8.68765            -10.1721
Ar             2.30716             2.28701           0.0167762            -1.49946            -4.55704             2.39667
Ar             1.54522             2.37689            0.808468            0.108066             9.06639             5.50311
Ar             2.37936             1.56304            0.824513             9.44525             2.79079             7.90655
Ar             1.54388             1.51108             1.57855             -0.1152            -5.05526             5.11356
Ar             2.34661             2.33085              1.5942             4.46431             2.12406             7.51979
Ar             1.58635             2.31273              2.3059             6.30394           -0.630419             -1.6987
Ar             2.38208              1.5119             2.37081             9.92086            -4.95279             8.15593
Ar             1.59002             1.49008             3.09115             6.83722            -8.21103             0.23142
Ar             2.32987             2.31642             3.11656             1.93991          -0.0811598             4.12209
Ar             1.58785             2.30716             3.92768             6.56776            -1.49733             9.94451
Ar             2.36766              1.5428             3.81629             7.68611           -0.282079            -6.89401
Ar             1.55802             1.48052             4.69997             2.02713            -9.60779             9.84685
Ar             2.36094             2.27193             4.59621             6.71451            -6.85762            -5.77251
Ar             1.57067             2.26941             5.41893             3.94201            -7.17756             1.79459
Ar             2.35526             1.55064             5.41278             5.83785            0.895149            0.872698
Ar             1.53449             3.15013              6.1317            -1.50926             9.19749             -7.2518
Ar             2.37825             3.90249             6.13254             9.27126             6.14075            -7.35866
Ar             1.52767             3.86034            0.765704            -2.54547           -0.242882            -1.08905
Ar             2.27098             3.11165            0.832414            -6.98628             3.36683              9.1764
Ar             1.59552             3.02682             1.54665              7.6429            -9.39671            0.374667
Ar             2.27729              3.7971             1.57969            -6.03077             -9.7757             5.36466
Ar             1.52862             3.88977              2.3029            -2.39001             4.24818            -2.17515
Ar             2.29459             3.05201             2.31522            -3.37391            -5.65861           -0.249094
Ar              1.4902             3.05085             3.10363            -8.16783            -5.78239             2.13128
Ar             2.32185             3.82694             3.14962            0.679461            -5.30725             9.15329
Ar             1.57389              3.8212             3.80044             4.36365            -6.15109            -9.26023
Ar             2.33948             3.02819             3.81399             3.41206            -9.26968            -7.23056
Ar             1.55516              3.1021             4.61566             1.59098             1.90979            -2.79564
Ar             2.34815             3.80776             4.67638               4.723            -8.21595             6.40543
Ar             1.51856             3.82875             5.43301            -3.91688            -4.98726             3.91064
Ar             2.33685             3.13921             5.45922             3.02563             7.43394             7.82604
Ar             1.56445             4.67775             6.15385             3.01981             6.59393            -4.00535
Ar             2.34405             5.37058           0.0340773             4.12772            -5.48387             5.13064
Ar             1.57942              5.3469            0.812553              5.2703            -9.10058             6.03145
Ar             2.33945              4.6948            0.809631             3.44382             9.14518             5.69815
Ar              1.5391             4.59197             1.57328            -0.82682             -6.3668             4.34218
Ar              2.3619             5.35429             1.57587              6.7936            -7.99383             4.75197
Ar             1.55438             5.39757             2.31073             1.46608            -1.41571           -0.959738
Ar             2.26102             4.58481             2.26223            -8.43109            -7.48857            -8.25838
Ar             1.54575             4.66342             3.08721            0.199625             4.36467           -0.341124
Ar             2.37034             5.45393             3.07259             8.10767             7.11563            -2.61562
Ar             1.50559             5.45526              3.8754             -5.8762             7.34665             2.01506
Ar              2.3549             4.60789             3.80403             5.74872            -3.98651            -8.77441
Ar             1.59448             4.63095             4.66269              7.5534           -0.500971             4.31404
Ar             2.37002             5.45264             4.62976             8.06098             6.94945           -0.653459
Ar             1.60746              5.4007             5.37818             9.47671           -0.900856            -4.31655
Ar             2.29596             4.58854             5.36826            -3.14483            -6.89703            -5.79427
Ar             3.09084             6.13349             6.14466            0.207629             -6.9892            -5.44671
Ar             3.79858            0.790408           0.0288535            -9.63405             2.73691             4.35312
Ar             3.04877            0.739522            0.716423            -6.13266            -5.10272            -8.51043
Ar             3.80634           0.0222123             0.82296            -8.41063             3.34565             7.68875
Ar             3.09309          0.00396951              1.5504            0.559039            0.294733            0.890779
Ar             3.86528            0.773989             1.58358            0.515104            0.267029             5.88888
Ar             3.04799            0.757387             2.37827            -6.23238            -2.33317             9.26659
Ar             3.92271             6.13609             2.37672             9.21002            -6.68401             9.05643
Ar             3.14046             6.11352             3.09272             7.75584            -10.0702            0.475346
Ar              3.9089            0.816364             3.14871             7.08215              6.7033              9.0191
Ar             3.13367             0.75096             3.79939             6.67493            -3.30689            -9.44886
Ar             3.87847           0.0285811             3.87213             2.53875             4.28785             1.57818
Ar              3.0872             6.17126             4.67686           -0.304689            -1.27927             6.43565
Ar             3.89102            0.737605              4.6038             4.42981            -5.28255            -4.58757
Ar             3.13443            0.806711             5.38817             6.80715             5.16689            -2.86722
Ar             3.88929             6.14346             5.40305             4.19865            -5.54535           -0.611688
Ar             3.08368             1.48347           0.0412687           -0.896786            -9.18439             6.12468
Ar             3.79691             2.36301           0.0319872            -9.87929             6.97059             4.86897
Ar             3.07071             2.31384            0.809171            -2.81442           -0.483042             5.59966
Ar             3.85306             1.55985            0.813519             -1.3212              2.3141             6.25255
Ar             3.11767             1.59029             1.58116             4.33603             6.92892              5.5744
Ar             3.82849             2.25548             1.56791            -4.97225            -9.30545             3.55292
Ar              3.0467             2.26177             2.33644            -6.42398             -8.3593             2.96836
Ar             3.83254             1.52234              2.2938            -4.41016            -3.38382            -3.49203
Ar             3.07034             1.48959               3.043            -2.84619            -8.30346            -6.95309
Ar             3.88594             2.36952             3.10923              3.6383             7.91985              2.9764
Ar             3.08806             2.27109             3.91365           -0.140379            -7.01691             7.81388
Ar             3.81298             1.56151              3.8057            -7.36427             2.54182            -8.46328
Ar             3.10387             1.57939             4.65427              2.2222             5.21808             3.03349
Ar             3.91228             2.26344             4.66921             7.72447            -8.19126             5.29243
Ar             3.03805             2.32948             5.46345             -7.7538             1.90476             8.47636
Ar             3.89307             1.52334             5.37671             4.75102            -3.23589            -4.60685
Ar             3.11384             3.09411          0.00861695             3.64743            0.727549             1.11258
Ar             3.84233             3.89145             6.14933            -3.00077             4.53446            -4.85316
Ar             3.08799             3.89978            0.743711           -0.225355             5.75563            -4.48685
Ar             3.88867             3.06519            0.820027             4.08394            -3.66662             7.27006
Ar             3.05504             3.07656             1.51421            -5.18542            -1.94907            -4.59756
Ar             3.82224             3.89508             1.54885            -6.02135             5.06525            0.658292
Ar             3.13093             3.90773             2.30566             6.26888             6.94677            -1.71854
Ar             3.87693             3.11388             2.32796             2.26835             3.66711             1.61959
Ar              3.0682               3.092             3.07035            -3.20105              0.3657            -2.91548
Ar              3.8011             3.90795             3.11573             -9.2449             7.02172             3.99518
Ar             3.14081             3.86724             3.90605             7.81047            0.838112             6.71344
Ar              3.8884             3.07728             3.92506             4.01342            -1.86291             9.55734
Ar             3.05956             3.06071             4.68641            -4.47998            -4.35581             7.88925
Ar             3.86607             3.87639             4.60172              0.6195             2.24799            -4.89405
Ar             3.14785             3.87463             5.34434             8.83251             1.95569            -9.46988
Ar             3.79747             3.05678             5.40429            -9.71779             -4.9685           -0.324423
Ar             3.13429             4.58056          0.00865415             6.77468            -8.01587            0.753948
Ar             3.82872              5.3537            0.011469            -5.02579             -8.0132             1.68977
Ar             3.02557             5.40101            0.711717            -9.55206           -0.880762            -9.22668
Ar             3.83124             4.67499            0.805688            -4.62251             6.16874             5.09866
Ar             3.09839             4.63662             1.57353             1.36445            0.379357             4.34837
Ar             3.79629             5.38857             1.52898            -9.91563            -2.69905            -2.36315
Ar              3.0681             5.43289             2.37122            -3.16109             3.88264             8.13804
Ar             3.88027             4.60213             2.28623             2.85314            -4.82051            -4.65953
Ar              3.0897             4.60974              3.1382            0.045084            -3.67118             7.32083
Ar             3.82739             5.40859             3.02983            -5.15761            0.217061            -8.98945
Ar             3.12681             5.46847             3.91348             5.67816              9.2859              7.7969
Ar             3.80379              4.5978             3.89239            -8.76424            -5.45408             4.64465
Ar             3.14503             4.60965             4.65957             8.36104            -3.63112             3.85651
Ar              3.7967             5.43462             4.66898            -9.83082             4.17365             5.27741
Ar             3.03102             5.35648             5.34476            -8.82038            -7.60344             -9.2763
Ar             3.83877             4.67702             5.43709            -3.44447             6.46043             4.61323
Ar             4.67958           0.0263581            0.027165             6.83347             4.02312             4.14161
Ar             5.43155            0.736736             6.17025             3.69066            -5.36268             -1.3786
Ar             4.68684             0.77837            0.762618             7.94683            0.914314            -1.50672
Ar             5.41949             6.13075            0.814718             1.89767            -7.47876             6.39822
Ar             4.61321            0.042869             1.48668            -3.16136             6.39108             -8.7338
Ar             5.34862            0.751853             1.54492            -8.78757            -3.14009            0.102191
Ar             4.68669            0.714132             2.27963             7.95235            -8.88874            -5.58829
Ar             5.42184           0.0400385             2.31736             2.24645             5.79216           0.0699941
Ar             4.68349           0.0533253             3.12509             7.46854             8.08511             5.41929
Ar             5.36167            0.800065             3.04064            -6.81949              4.2654            -7.34185
Ar             4.66862            0.747637             3.83572             5.20149            -3.70361            -3.90406
Ar             5.36774             6.14272             3.80957            -5.98765            -5.58091            -7.92282
Ar             4.64616           0.0400858              4.6427             1.82312             6.01145             1.30721
Ar             5.46411            0.768958             4.63541             8.58928           -0.610983            0.132407
Ar             4.69352            0.733146             5.34926             8.94282            -5.91821            -8.65123
Ar             5.38574             6.14837             5.41326            -3.19899            -4.68441            0.876353
Ar             4.58249             1.48907          0.00670801            -7.82843            -8.38951            0.913794
Ar              5.3909             2.37116           0.0357604            -2.44492             8.19111             5.41476
Ar             4.59933             2.25806            0.721676            -5.27697            -8.92387            -7.63819
Ar             5.46262             1.52787            0.799237             8.45458            -2.53543             4.04214
Ar             4.61012             1.60981              1.6073            -3.59976             9.88924               9.538
Ar             5.42791             2.38155             1.51727              3.1569             9.75929            -4.20362
Ar             4.62599             2.27118             2.26457            -1.21347            -6.89853            -7.85498
Ar             5.35788             1.59098             2.34546            -7.36526             6.98471             4.31202
Ar              4.6429             1.59846             3.12932             1.32444             8.14933             6.01087
Ar             5.36662             2.30034             3.06537            -6.07187            -2.44733            -3.61888
Ar             4.62867             2.35121             3.91366           -0.800304             5.15896             7.86258
Ar             5.47146             1.54044             3.87345             9.72602           -0.638151             1.66876
Ar              4.5744             1.57936              4.5875            -8.97859             5.14439            -7.08584
Ar             5.39926             2.34754             4.63783            -1.18759             4.64471            0.542918
Ar             4.63723             2.33316             5.39598            0.470972               2.445            -1.62221
Ar             5.42383             1.58432              5.4411             2.54791             5.97206             5.19367
Ar             4.69866              3.1171           0.0559053              9.7285             4.21533             8.51129
Ar             5.42692             3.86027           0.0610191             3.03206           -0.253884             9.20345
Ar             4.60068             3.86114            0.828586            -5.05766           -0.101805             8.53228
Ar             5.43644             3.12013            0.776431             4.46508              4.5857            0.653885
Ar             4.59404             3.04259             1.52326            -6.07701            -7.10543             -3.2409
Ar             5.44991             3.92006             1.48635              6.4525             8.84538            -8.78687
Ar             4.66591              3.8941             2.36609             4.81883             4.90163             7.41411
Ar             5.45981             3.12548             2.36612               7.971             5.44923             7.42629
Ar             4.68557             3.03971             3.07994             7.74606            -7.49041            -1.42648
Ar             5.44844             3.81745             3.10168             6.27838            -6.73263             1.91028
Ar             4.69661             3.91814             3.86247             9.44381             8.53681           0.0812947
Ar             5.40746             3.04631             3.79676            0.141859            -6.53887            -9.82045
Ar             4.70003             3.02423             4.65716             9.90458            -9.76833             3.47503
Ar             5.36991             3.90846             4.68211            -5.58687              7.0763             7.29533
Ar             4.60876             3.89386             5.36896             -3.8604             4.83817            -5.67638
Ar              5.3643              3.1239             5.45596            -6.39188             5.18228             7.46303
Ar              4.5885             4.57211             6.15069            -6.88686            -9.37855            -4.22821
Ar             5.39943             5.45313           0.0260802            -1.12994             6.98629             3.76537
Ar             4.64747             5.37174            0.820561             2.01003             -5.3205              7.3196
Ar             5.39369             4.62625            0.759106            -1.97746             -1.1832            -2.04812
Ar             4.61338             4.58567             1.55841            -3.13199            -7.30683             2.08606
Ar             5.35084             5.35934             1.58061            -8.45279             -7.1858             5.46576
Ar             4.58204             5.38883             2.29232            -7.87202             -2.7342            -3.75367
Ar              5.4183             4.58522             2.27558             1.69603            -7.36665            -6.27179
Ar             4.62104             4.61449             3.05249            -1.99837            -2.96925             -5.5714
Ar              5.4437             5.38484             3.14727             5.45855            -3.37743             8.66582
Ar             4.68705             5.44861             3.92148             7.92521             6.23474             9.02944
Ar             5.37741             4.65557             3.87232            -4.41626             3.20237             1.58841
Ar             4.58524             4.68517             4.59353             -7.4201             7.67834            -6.12126
Ar             5.46494             5.42989             4.66835             8.74336             3.41422             5.14913
Ar             4.58155             5.45288             5.40998            -7.93978             6.92742            0.493672
Ar             5.38329             4.60738             5.36019            -3.54478            -4.02713             -6.9998
