256
Position of argon atoms in fcc cell after one integration
Ar             6.16748          0.00244645             6.17172            -7.67404             1.60742            -4.88532
Ar            0.771515             0.78612          0.00917253            -0.58173             8.99471             6.01009
Ar          0.00881346            0.781323            0.761836             5.76772             5.85286            -6.92094
Ar            0.762071          0.00398998            0.772911            -6.76779             2.61311            0.334587
Ar             6.17632             6.16882             1.55858            -1.89518            -6.80135             9.04283
Ar            0.771158            0.779933             1.54057           -0.810697             4.94119            -2.75923
Ar             6.16692            0.767468             2.33085            -8.04517            -3.23399             8.95782
Ar              0.7572             6.16416             2.31028            -9.96726            -9.83913             -4.5213
Ar             6.17288             6.16448             3.10461            -4.13667            -9.64604             9.85191
Ar            0.781714            0.785717             3.08451             6.09913             8.72648            -3.31437
Ar           0.0106506            0.779312             3.84839             6.97284             4.52398            -8.89686
Ar            0.774994           0.0147328             3.84739             1.69713             9.64125            -9.54886
Ar             6.17151             6.16471             4.63595            -5.04862            -9.48747              1.0429
Ar            0.764769             0.77317             4.62596             -4.9962            0.505638            -5.49939
Ar             6.16421            0.776493             5.40405            -9.81373             2.68497            -1.76975
Ar            0.774007           0.0120798             5.39949             1.03709             7.90254            -4.76281
Ar          0.00302545             1.54868             6.17472             1.97846              2.5505             -2.9195
Ar            0.765363             2.33204             6.17458            -4.60537             9.73818            -3.04112
Ar          0.00656416             2.32008            0.764514             4.30237             1.89858            -5.18142
Ar            0.758023             1.54007            0.775224            -9.40978             -3.0897             1.84325
Ar          0.00501843             1.55917             1.53877             3.28734             9.42752            -3.93587
Ar             0.77893             2.30409             1.53916             4.29032            -8.57292            -3.67936
Ar             6.16728             2.32065             2.30287            -7.81576             2.27299            -9.37767
Ar            0.759162             1.53639             2.30722            -8.68257            -5.49754            -6.52104
Ar           0.0104855             1.55412             3.08838             6.85294             6.12522           -0.781333
Ar            0.779918             2.32829               3.085             4.92916             7.28655            -2.99772
Ar          0.00210603             2.31233             3.86014             1.38395            -3.17752            -1.19532
Ar             0.78633             1.53331             3.87195               9.139             -7.5175             6.53814
Ar             6.16422             1.53633             4.62224            -9.78822            -5.53898             -7.9446
Ar            0.784748             2.31861             4.63198             8.09621            0.937776            -1.55693
Ar              6.1788             2.31124             5.41515           -0.257826            -3.89234             5.48456
Ar            0.767795             1.53408             5.40692            -3.02974            -7.01915            0.109431
Ar           0.0103336             3.10431          0.00790042             6.76435             9.65518             5.15963
Ar            0.776566             3.86609             6.17184             2.73767             2.69632            -4.81224
Ar             6.16609             3.85439            0.780016            -8.60545            -4.97116             4.99829
Ar            0.778806             3.09161            0.768213             4.19937             1.33801            -2.75448
Ar          0.00590729             3.10228             1.53805             3.84306              8.3228            -4.41062
Ar            0.767087             3.85759             1.55111            -3.47982            -2.86432             4.14621
Ar             6.16466             3.87539             2.32054             -9.5402               8.793             2.20238
Ar            0.771133             3.09564             2.32622           -0.834903             3.97291             5.92486
Ar           0.0084315             3.09897             3.08474             5.50592             6.16288            -3.16019
Ar            0.759218             3.87514             3.07904            -8.64006             8.63217            -6.89791
Ar         0.000183936             3.85781             3.85596            0.124307            -2.72555            -3.93376
Ar             0.77357             3.08798             3.85206            0.777994            -1.04108            -6.48984
Ar          0.00110629             3.09394             4.62339            0.722521             2.86279             -7.1864
Ar            0.774513             3.85573              4.6412             1.39209             -4.0871             4.48627
Ar           0.0149972             3.85697             5.40294             9.82764            -3.27085            -2.49938
Ar            0.761822             3.07448             5.42141             -6.9331            -9.89202             9.60169
Ar             6.16749             4.64701             6.16527            -7.67137              8.2944             -9.1347
Ar            0.776541             5.41511             6.17007             2.71252              5.4733            -5.98132
Ar           0.0052063             5.41395            0.777574             3.39645             4.71002               3.383
Ar            0.768691             4.64483            0.778556            -2.43198             6.85838             4.02408
Ar          0.00172849             4.64667             1.53716             1.12137             8.06799            -4.99274
Ar             0.75808             5.40549             1.55589            -9.38431           -0.833393             7.27784
Ar             6.16833             5.40566             2.32416            -7.09961           -0.732961             4.57597
Ar            0.769124             4.62442             2.32241            -2.15348            -6.50713             3.42671
Ar             6.17336             4.63539             3.07814            -3.80702            0.680837            -7.48806
Ar            0.780526             5.39259             3.09379             5.31251            -9.29276             2.76386
Ar              6.1662             5.40995             3.85238            -8.51207             2.08926            -6.28142
Ar            0.774431             4.64889             3.86007             1.32425             9.52237            -1.23816
Ar           0.0051268             4.63749             4.62647             3.35749             2.05539            -5.16409
Ar            0.773013             5.42087             4.62119             0.39068             9.23865            -8.62519
Ar           0.0135526             5.42161             5.41732             8.85034             9.73458             6.91911
Ar            0.783761             4.63246             5.40085             7.44973            -1.24531            -3.86805
Ar             1.53182              6.1662           0.0119896            -8.49188            -8.49417             7.83821
Ar             2.31102            0.771403          0.00889396            -4.03289           -0.652863             5.83057
Ar              1.5307             0.78045            0.778412            -9.22163             5.27347             3.94664
Ar             2.32576             6.16627            0.786573             5.62258            -8.47448             9.29491
Ar             1.53608             6.17329             1.53168            -5.70222            -3.84548            -8.58943
Ar             2.32948            0.772619             1.54151             8.06156            0.136472            -2.14437
Ar             1.53431            0.758882             2.30966             -6.8583            -8.86977            -4.92227
Ar             2.32405             6.17011             2.30878             4.50489            -5.97157            -5.50168
Ar             1.55725          0.00324705             3.07466             8.17108             2.10958            -9.76683
Ar             2.30683            0.764605             3.08942            -6.77804            -5.10227          -0.0996148
Ar             1.53531            0.762363             3.84924            -6.20104            -6.56888            -8.33328
Ar             2.31303             6.17781             3.85165            -2.71514            -0.89223            -6.76166
Ar             1.54584          0.00187527             4.64341            0.695485             1.21317             5.93426
Ar             2.32898            0.779694             4.63256             7.73181             4.78155            -1.17493
Ar             1.55919            0.783059             5.39359             9.44106             6.99285            -8.62256
Ar             2.32057           0.0100194             5.40847             2.22473             6.56517             1.12827
Ar             1.54364             1.55789             6.16397           -0.749605              8.5869            -9.96465
Ar             2.31485             2.31021          0.00397026             -1.5227            -4.56483             2.59329
Ar             1.54485             2.33095            0.780711           0.0482962             9.01902             5.44179
Ar              2.3315             1.54897            0.784405             9.38482             2.74642             7.86965
Ar             1.54456             1.53696             1.55257            -0.14733            -5.11867             5.10149
Ar             2.32396             2.32029             1.55616             4.44311             2.04442             7.45341
Ar             1.55435             2.31612             2.31456             6.27565           -0.689909            -1.71186
Ar             2.33209             1.53717             2.32953             9.77657              -4.984             8.09498
Ar             1.55523             1.53211             3.08994             6.84167             -8.3005            0.240619
Ar             2.32009             2.31698             3.09577              1.9083           -0.128826              4.0639
Ar             1.55468             2.31485             3.87713             6.48789            -1.52411             9.93452
Ar             2.32879             1.54431             3.85141             7.61138           -0.310442            -6.91585
Ar             1.54781             1.52988             4.64953             1.98567            -9.75874             9.94291
Ar             2.32721             2.30674             4.62555             6.57982            -6.83957            -5.77127
Ar             1.55073             2.30612             5.40959             3.90042             -7.2403              1.8555
Ar              2.3259             1.54614             5.40819             5.72245            0.882656            0.932318
Ar             1.54237             3.10352             6.16826            -1.57943             9.14324             -7.1431
Ar             2.33125             3.87131             6.16868             9.22108             6.12343            -6.91057
Ar             1.54079             3.86159            0.770947            -2.61145           -0.247449            -0.96955
Ar              2.3065             3.09465            0.786205            -6.99142             3.32755             9.04308
Ar             1.55651             3.07502             1.54515             7.68169             -9.5291            0.245005
Ar             2.30797             3.84697             1.55277            -6.03555             -9.8231             5.24023
Ar               1.541             3.86835             2.31389            -2.46989             4.18703            -2.15587
Ar             2.31193             3.08089             2.31669            -3.43693             -5.6886           -0.316261
Ar             1.53213             3.08058             3.09281            -8.28861            -5.88678              2.1211
Ar             2.31827             3.85389             3.10338            0.714333             -5.2935             9.05214
Ar             1.55152             3.85255             3.84773             4.41326            -6.17197            -9.32328
Ar             2.32229              3.0754             3.85087             3.35274            -9.28805            -7.26562
Ar             1.54716             3.09245             4.63001             1.55801             1.88672             -2.8445
Ar              2.3243             3.84946             4.64402             4.66761            -8.19236             6.33299
Ar             1.53869             3.85427             5.41285            -3.98817            -5.03679             3.99156
Ar             2.32167             3.10109             5.41896             2.94967             7.53857             7.98427
Ar             1.54928             4.64434             6.17347             2.95162             6.54599            -3.74375
Ar             2.32334             5.39842          0.00789295             4.04076            -5.46313             5.16766
Ar             1.55276             5.39298            0.781719             5.22617            -9.03196             6.09702
Ar             2.32227             4.64831            0.780965             3.33862             9.13987             5.60897
Ar             1.54345             4.62454             1.55133           -0.874475            -6.43057             4.29351
Ar             2.32747             5.39471             1.55192              6.7475            -7.90315             4.67857
Ar             1.54698             5.40466             2.31567             1.44219            -1.37639           -0.983837
Ar             2.30417             4.62292             2.30446            -8.51944            -7.49621            -8.33138
Ar             1.54496             4.64108             3.08901            0.120667             4.40343            -0.36648
Ar              2.3294             5.41766             3.08568             8.01188              7.1445            -2.55173
Ar             1.53569             5.41795             3.86507            -5.95131             7.33267             2.03639
Ar             2.32585             4.62824             3.84859             5.68691            -4.00995            -8.75956
Ar             1.55623             4.63356             4.64088             7.50019           -0.524319             4.27231
Ar             2.32933             5.41734             4.63327             7.96426             6.93568           -0.712364
Ar             1.55925             5.40534             5.40016             9.47871           -0.922087             -4.3229
Ar             2.31222             4.62376             5.39786            -3.23871            -6.94261            -5.83094
Ar             3.08985             6.16873             6.17142            0.181713            -6.85523            -5.10121
Ar             3.84736            0.776563          0.00668248            -9.56977             2.72548             4.37275
Ar             3.08012            0.764941            0.759521            -6.18942            -4.90454            -8.44121
Ar             3.84912          0.00515274            0.784048            -8.41509             3.36927             7.63373
Ar             3.09036          0.00116548             1.54604            0.519269            0.732393            0.828908
Ar             3.86272            0.772733             1.55372            0.493093            0.228117             5.85632
Ar             3.07993             0.76899             2.33126            -6.31402            -2.23842             9.22865
Ar             3.87597             6.16938             2.33089             9.17721            -6.42931             8.98394
Ar             3.10127             6.16414             3.09029             7.67224            -9.85755            0.472433
Ar              3.8728            0.782528             3.10317             7.10193             6.63245             8.91258
Ar             3.09974            0.767526             3.84751             6.66275            -3.20569            -9.47092
Ar             3.86574           0.0066333             3.86428             2.47535             4.34036             1.51979
Ar             3.08898             6.17742             4.64416           -0.383335            -1.14873             6.42265
Ar             3.86864             0.76439             4.62728             4.37772            -5.24909            -4.63676
Ar             3.09991            0.780359             5.40252             6.77427             5.20666            -2.78299
Ar             3.86822             6.17106             5.40597             4.10371            -5.32582           -0.530533
Ar              3.0882             1.53056          0.00963264           -0.893336            -9.31205             6.29595
Ar             3.84697             2.32773          0.00735293             -9.8246             6.91543             4.82245
Ar             3.08518             2.31639            0.780849            -2.87131           -0.513969             5.54475
Ar             3.85988             1.54824            0.781856            -1.35952             2.26403             6.20446
Ar               3.096             1.55526             1.55313             4.21548              6.8658             5.47252
Ar             3.85418             2.30292             1.55008            -5.09752            -9.34168              3.4729
Ar             3.07963             2.30438             2.32158            -6.50965            -8.38697             2.88978
Ar             3.85514             1.53959             2.31175             -4.4692            -3.40107            -3.55307
Ar             3.08509             1.53201             3.07877            -2.93144            -8.36751            -7.07659
Ar             3.86749             2.32925              3.0941             3.61916             7.91235              2.9696
Ar             3.08915             2.30657             3.87389           -0.266606            -6.95295             7.81429
Ar             3.85062             1.54864             3.84894            -7.42983              2.5236            -8.53037
Ar             3.09283             1.55277             4.63894             2.13642             5.23493              3.0019
Ar              3.8735              2.3048             4.64238             7.56423             -8.1087             5.25959
Ar             3.07765             2.31999             5.41992            -7.80883             1.84152             8.61877
Ar              3.8691             1.53982             5.39988             4.68183            -3.24953            -4.51454
Ar             3.09518             3.09059          0.00217124             3.67624            0.668917             1.39401
Ar             3.85746             3.86873             6.17255            -2.95656             4.43083            -4.37108
Ar             3.08919             3.87067            0.765905           -0.247533             5.70479            -4.27002
Ar             3.86809             3.08393            0.783348             4.01924            -3.69776             7.17761
Ar             3.08157             3.08655              1.5377            -5.23851            -1.97641            -4.63716
Ar              3.8528             3.86956             1.54568            -6.00515             4.98268            0.594416
Ar              3.0991             3.87251              2.3145             6.24581             6.91185            -1.75289
Ar             3.86541             3.09519             2.31967             2.25827             3.68091               1.633
Ar             3.08461             3.09013             3.08513            -3.24691            0.365464            -2.90657
Ar             3.84794             3.87253             3.09558            -9.19099             6.92532              3.9385
Ar             3.10135             3.86316             3.87211              7.7245            0.782614             6.64779
Ar             3.86805             3.08674             3.87652             3.99047            -1.85792             9.53493
Ar              3.0826              3.0829             4.64636            -4.56353            -4.37185             7.86364
Ar             3.86291             3.86525             4.62679            0.621095             2.15344             -4.9551
Ar             3.10301             3.86486             5.39239             8.80369              1.8977            -9.42271
Ar             3.84705             3.08202             5.40616            -9.77017            -4.95378           -0.393438
Ar             3.09988             4.62185          0.00238748             6.75399             -8.1855              1.5224
Ar             3.85429             5.39451          0.00270461            -5.03001            -8.02673             1.75991
Ar             3.07472             5.40544            0.758436            -9.72657           -0.861351            -9.15148
Ar             3.85485             4.64372            0.780042            -4.65921             6.13418             5.01113
Ar             3.09158             4.63485             1.55141             1.32037            0.325927             4.34403
Ar             3.84679             5.40254             1.54112            -9.94238             -2.7667            -2.40282
Ar             3.08456             5.41284             2.32967            -3.28139             3.98134             8.18248
Ar             3.86612             4.62688             2.31002             2.73046            -4.89716            -4.68993
Ar             3.08958             4.62863             3.10082          0.00713973            -3.74634             7.36583
Ar             3.85393             5.40722             3.07575            -5.25766             0.29791             -9.0536
Ar             3.09813             5.42104             3.87385             5.61161             9.35612             7.78737
Ar             3.84851             4.62588             3.86895            -8.81352            -5.55643             4.58217
Ar             3.10239             4.62858             4.64014             8.39545            -3.78105             3.79255
Ar             3.84686             5.41323             4.64232            -9.89008             4.23385             5.21838
Ar             3.07604             5.39516             5.39238             -8.8691            -7.60237             -9.4137
Ar             3.85656              4.6442             5.41374            -3.53769             6.44851             4.57695
Ar              4.6448          0.00607715          0.00625123             6.84009             3.97379             4.09529
Ar             5.41253            0.764136             6.17716             3.77674            -5.40583            -1.32121
Ar             4.64646            0.773761            0.770172             7.93073            0.898592            -1.46215
Ar             5.40972             6.16812            0.782163             1.94001            -7.24522             6.40152
Ar             4.62944           0.0100064             1.53133            -3.21526             6.53248            -8.81183
Ar             5.39334            0.767703             1.54476            -8.79254            -3.08554          -0.0134172
Ar              4.6464            0.759015             2.30845             7.89445            -8.77544            -5.71474
Ar             5.41027          0.00946723             2.31718             2.29844             6.17162          0.00760321
Ar             4.64567            0.012319             3.09774             7.41266             8.06279             5.35252
Ar             5.39636            0.778727             3.07823            -6.81586             4.15192            -7.42522
Ar             4.64225            0.766647             3.85586              5.1708            -3.76124            -3.99676
Ar             5.39782             6.17081             3.84987            -5.86389            -5.47571            -7.92613
Ar             4.63705          0.00933481             4.63625             1.76751             6.09576             1.24221
Ar             5.42006            0.771687             4.63462             8.70889           -0.477592            0.167459
Ar             4.64802            0.763337             5.39347             8.94769            -5.93791            -8.70828
Ar             5.40192             6.17206             5.40835            -3.16837            -4.64328             1.03249
Ar             4.62237             1.53189          0.00167233            -7.85382            -8.44295             1.06947
Ar             5.40314             2.32962          0.00825632            -2.37632             8.15318             5.40753
Ar             4.62625             2.30352            0.760655            -5.30805            -8.94852            -7.68605
Ar             5.41964             1.54086            0.778614             8.44531            -2.57027             4.07022
Ar             4.62871             1.55977             1.55917            -3.69535             9.81768             9.42809
Ar             5.41167             2.33201             1.53846             3.21847             9.72253            -4.14696
Ar             4.63238             2.30653             2.30497            -1.28973            -6.97383            -7.99226
Ar             5.39546             1.55545             2.32368            -7.40096             6.98709             4.26213
Ar              4.6363             1.55715             3.09875             1.27643             8.10505             6.01118
Ar             5.39749             2.31322             3.08395            -6.06858              -2.586             -3.6788
Ar             4.63299             2.32502             3.87386           -0.887543             5.14027             7.79851
Ar             5.42172             1.54376             3.86465             9.80678           -0.666963             1.75896
Ar             4.62046             1.55281             4.62354            -9.10342             5.25703            -7.08936
Ar             5.40506             2.32415             4.63515            -1.11331             4.57121            0.516674
Ar             4.63499             2.32085             5.40427            0.417253               2.406            -1.63097
Ar             5.41072             1.55391             5.41468             2.59754             5.97926             5.19427
Ar             4.64919             3.09588           0.0128987              9.7217             4.13962             8.43696
Ar             5.41143             3.86158           0.0141154             3.05733           -0.256715             9.24256
Ar             4.62655             3.86176            0.785347            -5.11241           -0.134067             8.48558
Ar             5.41362             3.09665            0.773288             4.49834             4.63405            0.591251
Ar             4.62504             3.07872             1.53981            -6.10576            -7.10713            -3.26031
Ar             5.41677             3.87533             1.53127             6.55449              8.7609            -8.85492
Ar              4.6416             3.86936             2.32846             4.74819             4.84436             7.39028
Ar             5.41904             3.09785             2.32846             8.04754             5.42252             7.39319
Ar             4.64618             3.07802             3.08732             7.74383            -7.56353             -1.4703
Ar              5.4164             3.85169             3.09231             6.31532            -6.73236             1.79716
Ar              4.6487             3.87491             3.86208             9.40041             8.47896             0.07343
Ar             5.40689             3.07958             3.84688           0.0916942            -6.54519            -9.87836
Ar             4.64953             3.07441              4.6396             9.93916            -9.92834             3.43492
Ar             5.39826             3.87267             4.64533            -5.56614             7.01551             7.19377
Ar             4.62843             3.86932               5.398            -3.87904              4.8162            -5.73276
Ar             5.39693             3.09751             5.41809            -6.43434             5.19577              7.4321
Ar             4.62373             4.61996             6.17255            -6.95711            -9.43166            -4.33141
Ar             5.40509             5.41748           0.0061874            -1.09623             7.02578             4.02629
Ar             4.63736             5.39869            0.783494             1.97021            -5.28416             7.27103
Ar             5.40374             4.63245             0.76938            -1.97557            -1.24486            -1.98723
Ar             4.62948             4.62307              1.5479            -3.19056            -7.38978             2.04729
Ar             5.39385             5.39582             1.55302            -8.45643            -7.16446             5.39732
Ar             4.62225             5.40263             2.31143            -7.93137            -2.70193            -3.76353
Ar             5.40945             4.62298             2.30756             1.76382            -7.45565            -6.29998
Ar             4.63127             4.62974             3.08098            -2.02319            -3.02068            -5.62408
Ar             5.41537             5.40174             3.10292             5.63857            -3.28897             8.74627
Ar             4.64654             5.41648             3.87568             7.98334             6.36908              8.9898
Ar             5.39997             4.63926             3.86433            -4.44601             3.20903             1.55421
Ar             4.62301             4.64609             4.62489            -7.43551             7.68477            -6.19992
Ar             5.42022             5.41215             4.64219             8.81958             3.53082             5.13326
Ar             4.62214             5.41743             5.40749            -8.00346             6.99236            0.485391
Ar             5.40133              4.6281             5.39598            -3.55034            -4.10024            -7.05807
