256
Position of argon atoms in fcc cell after one integration
Ar           0.0932597             6.15627            0.110439             6.62871            -6.09799             7.80746
Ar            0.795034            0.874186           0.0303741             1.95458              6.9986             6.44706
Ar           0.0510304            0.705262              0.8923             4.87246            -3.76269             8.13446
Ar            0.673544           0.0371404            0.754633            -6.78396               7.684            -1.57307
Ar             6.11576             6.08932             1.47351            -5.78565              -7.513            -4.98117
Ar              0.7725            0.730743             1.45448          0.00892646            -2.93431            -6.49971
Ar            0.025725            0.919269             2.23985             1.68403             10.0638            -5.48739
Ar             0.91425             6.06465             2.25787             9.80086            -9.37941            -4.20842
Ar           0.0828819            0.132871             3.14287             5.24102             8.81198             3.89018
Ar            0.874697            0.887787             3.15928             6.80846             7.54788              4.5001
Ar           0.0566979            0.683581             3.85192             4.06914            -5.77801             -1.0123
Ar            0.869728               6.078             4.00458             6.95196            -13.0788             10.0266
Ar             6.09508             6.12536             4.72112            -7.44587            -4.74057             5.68228
Ar            0.846899            0.850616             4.55306             4.95515              5.1164            -5.46841
Ar            0.093542            0.749354              5.2724              9.2942          -0.0657422            -8.91012
Ar            0.660858             6.10134             5.43352            -6.95288            -5.84062             1.58631
Ar           0.0182971             1.67282            0.022738             1.95555             8.68183             2.61032
Ar            0.912618             2.42033             6.09331             9.86947             7.45521            -12.1967
Ar           0.0722753             2.39135            0.911254             8.90283             5.36088               9.318
Ar            0.790342             1.65138            0.852674             1.23265             7.08431             5.27086
Ar           0.0468107             1.59855             1.69093             3.92832              3.1317             10.0843
Ar            0.703362             2.40756             1.64625            -4.93815             6.46554             6.49035
Ar             6.12324             2.31016             2.39466            -7.37691           -0.367416             5.28308
Ar            0.885353             1.49555             2.30682             7.45964            -3.40815           -0.777817
Ar             0.13904             1.61112             3.07036             9.94643             4.57829            -1.36335
Ar            0.679156             2.39337              3.0608            -6.61807             6.66844             -2.5353
Ar             6.13881             2.29264             3.93281            -5.39106            -1.56518             4.82866
Ar            0.697637             1.69625             3.99815            -3.18607             10.3819             9.13026
Ar             6.12838              1.4866             4.72729            -6.96311            -4.07743             7.22468
Ar            0.755603             2.47164             4.51178          -0.0529907             11.4191            -9.94889
Ar           0.0689658             2.32079             5.51211             5.74496          -0.0379806             5.07356
Ar            0.790514             1.59023             5.35159             1.69406             2.93763            -3.48678
Ar            0.201722             3.24587             6.05473             27.8526             11.8987            -13.9838
Ar            0.705708             3.92373            0.149003            -4.85846             3.82099             13.2404
Ar           0.0576172             3.72039            0.771914              4.2531            -9.44097            0.185853
Ar            0.774925             3.05027            0.905315            0.150997            -2.61407             9.15328
Ar            0.117951             3.05771             1.59316             8.96173            -2.72603             2.86431
Ar            0.836327             3.89702             1.63137             5.00229             2.14065              6.0585
Ar             6.05919             3.80761             2.46845            -10.1447            -3.17612             11.9123
Ar            0.694972             2.97474             2.46535            -4.85473            -8.49903             10.6868
Ar           0.0943782             2.94947             3.13066             9.14472            -10.3193             2.28597
Ar            0.655568             3.97226              3.2158            -5.89288             8.30351             9.50678
Ar              6.1293             3.84067              3.8569            -5.14964            -1.51221           -0.377401
Ar            0.815696             2.94421             3.88159              3.1651            -11.3688             2.75326
Ar           0.0569347             3.16939             4.68086             4.63096             5.29245             3.17113
Ar            0.720183              3.8979             4.49718            -2.78715              2.5399            -9.22844
Ar             6.05513             3.75917             5.51953            -23.9387            -8.83701             8.53294
Ar            0.677655             3.21347             5.40548            -6.02004             8.25679            0.922564
Ar             6.13402             4.71287             6.08391            -3.38708             6.29166            -8.08468
Ar            0.920003             5.35212             6.03096             9.80342            -4.17949            -10.0489
Ar             6.05312             5.40901            0.795573            -8.81229            0.313947             1.61373
Ar            0.691963             4.71595             0.66591            -4.97134             5.22754            -6.62632
Ar            0.142554             4.63737             1.49553             9.36458            0.227739            -3.37842
Ar            0.741325             5.51142             1.57196            -1.34989             7.15218             2.07044
Ar             6.12405             5.44208             2.44837            -4.13565               2.014             9.47935
Ar            0.926688             4.72712             2.38647             10.4624             6.54164             4.61613
Ar             6.06387             4.71737             3.03987            -8.32893             6.44118            -3.53353
Ar            0.893544              5.3775             3.21368             8.00384            -1.84972             8.16415
Ar           0.0290099             5.53513             3.93129             5.59712             8.84984             4.72119
Ar            0.918262             4.48554             3.79012               9.844            -11.1473            -6.15727
Ar             6.13633              4.6488             4.71832            -3.11283            0.981543             5.46915
Ar            0.802485             5.29283             4.53043             2.00871            -7.58062            -6.69471
Ar             6.08451             5.30792             5.54571            -6.57654            -7.64079             10.6007
Ar            0.893298             4.77967             5.27872              10.695              9.2664            -10.7555
Ar             1.42064           0.0443782             6.08876            -8.30016             3.91392            -6.13596
Ar              2.2818            0.747739            0.153949            -2.25008            -0.91035              10.307
Ar             1.47848            0.662887            0.898319            -4.56947            -5.66686             8.63409
Ar             2.27064             6.14965            0.832233            -3.22988            -3.52177             4.21064
Ar             1.59329             6.11267             1.49831             3.39223            -6.42186            -3.40262
Ar             2.27919            0.681454             1.48168            -2.35076            -4.12709            -4.25111
Ar             1.44098             0.67207             2.34307            -7.10324            -4.87248             1.79281
Ar             2.46275             6.06349             2.46399             14.5282            -13.1698             9.91299
Ar             1.55542             6.15592             3.11367            0.645425            -1.86434             1.54477
Ar             2.22053            0.855734             3.13105            -6.40401             5.61161             2.84825
Ar             1.58581            0.857012              3.9146             2.68583             5.25611             3.60975
Ar             2.45941             6.09602              3.7735              11.094            -6.78105            -6.26808
Ar              1.5252            0.111027             4.51169            -2.03335             13.3835            -8.76031
Ar             2.21098            0.893218             4.71517            -7.07747             8.01399             5.34997
Ar             1.56628            0.858842             5.52802             1.22482             6.35328             8.21664
Ar             2.36142           0.0991691              5.3442             3.04968              6.9881            -4.12501
Ar              1.3977             1.49634             6.03812            -10.1364            -4.34686            -13.6256
Ar             2.46478             2.32691           0.0953171             9.90692            0.592373             7.63015
Ar             1.60394             2.25033             0.92334             4.11135            -4.55938             10.3324
Ar              2.4142             1.50476            0.618887             6.63396            -3.12662            -10.3597
Ar             1.48866             1.61096             1.57969            -3.81444             4.61404             2.14305
Ar             2.16661             2.35524             1.62071            -10.2873             2.46498             4.71902
Ar             1.59827             2.45775             2.44413             3.83036             9.48593             8.81559
Ar             2.35034             1.48153             2.29483              2.5706            -4.25248            -1.77975
Ar             1.54888             1.60699             3.09584            0.684079             4.37416            0.385409
Ar             2.21355             2.17332             3.06787            -7.55159            -9.79181            -1.68814
Ar             1.41183             2.31306             3.83283            -9.52116           0.0688963            -1.77787
Ar              2.4589             1.44143             3.91175             10.8925            -7.75766             3.35367
Ar             1.61676              1.6748             4.78402             4.88531             8.97706             10.4339
Ar             2.38379               2.269             4.50568             4.37237             -3.3111            -8.51967
Ar             1.56379             2.33774             5.34138             1.19913             1.12002            -4.87913
Ar              2.3754             1.63212             5.38903             4.16038             5.98614            -1.20953
Ar             1.46046             3.03639            0.111706            -6.21605            -4.23532             13.7715
Ar             2.30238             3.84737             6.03864            -1.14804           -0.726664            -11.1552
Ar             1.41246             3.97664            0.906757            -8.81187             7.49361             9.15298
Ar             2.32322             2.97542            0.796111            0.433213            -7.79842             1.33069
Ar             1.46939             3.20783             1.45292            -5.41248             8.10903            -6.41749
Ar             2.23128             3.93355             1.48139            -5.81589              5.0606            -4.20023
Ar             1.41098             3.82451             2.25093            -9.45297            -2.39703            -5.06056
Ar             2.45026             3.04446             2.38373             9.33276            -2.70424             5.13909
Ar             1.69495             3.14025             3.03225             10.0559             3.08909            -4.04147
Ar              2.4162             3.82119             3.19792             7.76954             -4.3033             7.50898
Ar             1.66045             3.97407             3.82602             7.44711             7.91345             -2.9345
Ar             2.23654             3.23228             3.87364            -5.35754             9.96185            0.488615
Ar             1.49858             2.96457             4.70543            -3.34311            -8.79452             4.93743
Ar             2.44227             3.74487             4.70361             8.55853            -7.70884             4.58193
Ar             1.60853             3.97951              5.2831             3.91477             9.45515            -9.49316
Ar              2.3876             3.05449              5.4015             4.81213            -2.02685           -0.258167
Ar             1.66388              4.4825           0.0699873              8.1836            -10.2223             8.07027
Ar             2.27424             5.47981             6.15913            -2.79375             4.75135            -1.61065
Ar             1.52768             5.33529            0.910851            -1.03562            -4.72713             9.36389
Ar             2.40901             4.75938            0.753435             6.57256             8.59495           -0.750765
Ar             1.68471              4.6907             1.52824             9.61378             3.74753             -1.1911
Ar             2.28794             5.46378             1.56887            -2.05197             3.95573              1.3879
Ar             1.47365             5.40282             2.35088             -5.5667           -0.248988             2.22482
Ar             2.19997             4.58922             2.27939            -7.93397            -2.87039            -2.74911
Ar             1.52046             4.54643             3.18213            -2.21257            -6.20598              7.0425
Ar             2.34253             5.30702             2.94769             2.55399            -6.12397            -10.2005
Ar             1.69426             5.43678             3.82931             9.79334              2.0191            -2.26835
Ar             2.41471             4.65987             3.83958             6.63329             1.43255            -1.47536
Ar             1.41411             4.55686             4.78466            -10.8614            -5.67782             13.7737
Ar             2.37338             5.40673               4.783             3.70438           -0.376498             10.1399
Ar             1.63436             5.30572             5.40103             6.87668            -8.04505           -0.147344
Ar             2.18984             4.74124             5.48579            -9.72477             8.38093             3.72681
Ar             3.08008             6.13884              6.1075            -0.61828            -2.87526            -4.63828
Ar             3.89489             0.81491             6.04537             2.25877             3.09055            -9.09614
Ar             3.04526            0.871579            0.843271            -3.22196             6.58836             4.49133
Ar             3.83165            0.152043             0.72129            -1.89593             9.89526            -3.14697
Ar             3.00565             6.12655             1.66384            -5.80774            -7.12715             8.40459
Ar             3.79601            0.907515             1.58683            -4.39588             8.81405             2.83948
Ar             2.94542            0.691884             2.16175            -9.71905           -0.795852            -10.8579
Ar             3.91819             6.03791             2.39838             3.96782            -9.15543             5.42338
Ar             3.02956             6.06269             3.09914            -4.93161            -8.59591            0.681894
Ar             3.85347            0.655143             3.21126           -0.495742             -7.1732             8.14725
Ar             3.04345            0.873184             3.93124            -3.71095             9.12843              5.3488
Ar             3.76941             6.07712             3.87768            -6.02336            -8.67193             1.81022
Ar             3.14307            0.117094             4.64486             4.01092             11.7863              1.0088
Ar             3.81905            0.813441             4.61838            -3.18123             2.79456            -1.11675
Ar             2.98516            0.849539             5.45304            -7.02108             5.05967             3.04086
Ar             3.72757             6.11239             5.28987            -9.19698            -7.78754            -7.94417
Ar             3.23206              1.6622             6.12137             9.31931             8.22871            -4.98826
Ar             4.01304             2.35267             6.11089             10.2757             2.21124            -4.70728
Ar             3.04895             2.31297            0.913481            -2.76419           -0.196151             9.04677
Ar             3.84622             1.69614            0.875805           -0.974575             10.5007             7.30249
Ar             2.95384             1.46034             1.63831            -9.18149            -5.88592             6.58325
Ar             3.95349             2.21718             1.55305             5.87305            -7.07516           0.0461058
Ar             3.19235             2.28008             2.18388             6.98476            -2.34492             -8.8572
Ar             4.01181             1.55668             2.31853              10.325              0.2393           -0.122397
Ar             3.08239             1.40541             3.24593           -0.560426            -9.37365             11.4245
Ar             3.73432             2.25214             3.21384            -8.85208            -4.48734             8.69515
Ar             3.06498             2.17725             3.78046            -1.00685            -9.87335            -5.72473
Ar              3.7325             1.59879             3.88579            -9.47954             3.95129             1.64413
Ar             3.12622             1.41131             4.51416             2.48312            -10.1066            -9.81435
Ar             3.95535             2.19888             4.60827             6.29737            -7.86164            -1.96018
Ar             3.04658             2.19968             5.47657            -3.18395             -8.4915             4.58101
Ar             3.96733             1.54583             5.51018             8.20836          -0.0887531             8.73023
Ar             3.22088             3.04049             6.03636             8.70762            -3.14363            -9.96507
Ar             3.93339             3.98858           0.0443996             4.84614             8.25447             3.26924
Ar             3.18422             3.79128            0.834271             6.50371            -5.00543             4.31645
Ar             3.88486             3.17017            0.664873             1.35449             5.51474            -6.29087
Ar             3.22032             3.13861             1.44577             8.61193             3.51365            -6.95478
Ar             3.83646             3.99713             1.53199            -1.69512             9.95361            0.087655
Ar             3.03986             3.77277             2.28328            -3.38754            -6.19577            -2.00812
Ar              3.8412             2.93882             2.41487            -1.39417            -10.1041             6.38934
Ar             2.93529             3.23427             3.05607            -11.8043              10.976            -2.81465
Ar             3.73156             3.81322             3.06173            -8.64682            -3.35206            -1.71505
Ar             2.97719             3.91556             3.90801            -7.88115             3.74169             2.96032
Ar              4.0124             3.19835             3.76182              10.282             7.18893            -6.93735
Ar             3.20348             3.05727             4.54151              7.9773            -1.47346             -5.9255
Ar             3.73868             3.71956             4.68243            -8.66459              -10.03             3.21044
Ar             3.06274             3.72595             5.42513            -2.03907             -9.3014              1.3194
Ar             3.84045             2.97257             5.31761            -1.55091            -7.65626             -5.6501
Ar             3.06397             4.66322             6.04734            -1.78573             2.61629            -9.22857
Ar              3.9751              5.5541             6.13127             8.01541             9.48905            -3.92541
Ar             3.02853             5.37741            0.870948            -4.47895            -2.29811             6.29455
Ar             3.90009             4.67873             0.86638               2.561             2.80603             6.17921
Ar             2.98248             4.55223             1.43714            -7.27365            -5.49621            -7.53094
Ar             3.87605             5.37428              1.6235             1.10158             -1.8957             5.18856
Ar             2.94934             5.55264             2.41353            -14.0792               14.45             7.76404
Ar             3.85663             4.49277             2.17498           -0.208703            -10.2647            -10.5948
Ar             3.12266             4.74635             3.10581             2.08385             7.51559              1.2223
Ar             4.00769             5.36823             3.14983             10.3857            -2.68949             3.83791
Ar             3.01853             5.54279             3.75032            -5.92037             11.2669            -8.16684
Ar              3.7884             4.51716             3.81986            -4.70287            -7.79664            -3.09797
Ar             2.96709             4.54403             4.65432            -8.26187            -6.14051             1.12343
Ar             4.01251             5.54743             4.47173              12.696             8.87529            -14.3864
Ar             3.03254             5.27278             5.47291            -3.94289             -9.4441             5.00397
Ar             3.94413             4.73666             5.27711             5.61524             6.76582            -8.52289
Ar             4.77766           0.0708916           0.0555098             10.9032             7.13768             5.00847
Ar             5.34637            0.615161           0.0408133            -5.47434            -11.8562             3.01081
Ar             4.62929            0.719853            0.622407           0.0809146            -4.30778             -10.189
Ar             5.30211            0.126255            0.892296            -7.10391             9.07545             7.66682
Ar             4.50675             6.07737              1.5911            -8.54964            -7.04486             3.13018
Ar             5.36556            0.896181             1.47953            -4.26255             9.41267            -4.80328
Ar             4.59754            0.926642             2.24134            -2.80386               10.68            -5.18548
Ar             5.27646           0.0409582             2.27968            -8.53415             3.62498            -2.40277
Ar             4.63789             6.03952             3.00996          -0.0455925            -10.1643            -5.61969
Ar             5.31542            0.903175             3.15751            -7.89614             10.5835              5.3184
Ar             4.66725            0.815833             3.75937             2.65722             3.39437            -7.73239
Ar             5.52137             6.12324             3.94007             4.38572            -4.24626              5.2915
Ar              4.6317             0.13433             4.57444           -0.104938             9.87743            -3.46818
Ar             5.43528            0.911789             4.68502             1.28069             9.56925             3.75403
Ar             4.78273            0.681576             5.25664             12.5805            -9.04305             -10.466
Ar             5.28061            0.129856             5.29377            -10.7681             11.7155            -8.19991
Ar             4.51876             1.57932             6.07065            -9.32132             2.38926             -8.2422
Ar             5.52897             2.38284           0.0435277             6.62648             4.26091             3.35603
Ar             4.68441             2.29483            0.793602             3.27924            -1.53103             1.40767
Ar             5.47643              1.5571             0.90055              4.1697            0.416479              8.9477
Ar             4.75488             1.40929             1.45301              9.4549            -10.2292            -6.01298
Ar             5.49537             2.44245             1.50542             4.23494             9.28577            -3.80022
Ar             4.72004             2.44885             2.36293             6.12731             9.09252             3.19371
Ar             5.38524             1.56152             2.38829            -1.80632             1.01588             4.79377
Ar              4.7447             1.42353             3.17429             9.24639            -10.3667             6.15693
Ar             5.35195              2.3569             3.05872            -3.79494             2.80808            -2.38432
Ar             4.64278             2.46148             3.99711            0.517982             10.1519             9.66126
Ar             5.41848             1.41392             3.85476            0.432968            -9.28201           -0.960624
Ar             4.71424             1.49343             4.63986             5.49808            -3.60185            0.418788
Ar              5.4495             2.38995             4.57312             2.77347             4.92001            -4.21416
Ar             4.75237             2.46493             5.50485             7.61273             10.0327             6.59981
Ar             5.53609             1.69118             5.25252             8.70817             9.40359            -11.1361
Ar             4.52306             3.17639             6.04991            -7.48847             5.35699            -9.34355
Ar             5.41518             4.02112            0.159886           -0.211865             13.6846             14.7509
Ar             4.62239             3.94503            0.758651           -0.552771             5.81855            -1.14998
Ar              5.5288             2.93835            0.864986             4.89231            -11.2607              7.0323
Ar             4.49711             3.18467             1.56887            -9.06103             6.48207             1.84687
Ar             5.37754             3.95824             1.52712            -2.36197             6.99134           -0.942162
Ar             4.53355             3.74788             2.29066            -6.72303            -7.56475            -2.14439
Ar              5.4181             2.98977             2.31876            0.511778            -7.13953            0.153643
Ar             4.68429             3.08567             3.16655              3.0904           -0.348155             5.32285
Ar              5.4736             3.92406             2.94041              6.8832             3.91964            -11.8812
Ar             4.65747             3.99244             3.73206             1.22568             9.27993            -9.22628
Ar             5.55011             3.05746             3.85304             9.08846            -2.26744           -0.531289
Ar             4.75165             3.02342             4.62892             7.84288            -5.12399           -0.933348
Ar             5.31274              4.0019             4.75707            -7.59297             9.46845             9.65343
Ar             4.75158             3.98532             5.31286             9.50533             8.64004            -7.43094
Ar             5.43927             3.21642             5.46614             2.73596              9.0008             3.97851
Ar             4.69592               4.679           0.0831427              4.9891             2.88447             7.92927
Ar             5.33989             5.35394             6.02664             -4.3934            -3.86999            -11.9403
Ar             4.66693             5.36092            0.774373             2.12692            -3.09134           0.0821015
Ar             5.29595             4.55428            0.654674            -7.56196            -8.30372            -11.2143
Ar             4.71506             4.49314             1.67914             6.13086            -9.87075             9.26619
Ar              5.4843             5.32143             1.59482              5.1953            -5.53299             3.24462
Ar             4.60566             5.28548             2.45102            -2.11154            -7.74817             9.26023
Ar             5.37701             4.57229             2.24854            -2.25831            -4.28945            -4.93396
Ar             4.48583             4.62569             3.20186            -10.1307           -0.795875             8.11841
Ar             5.50736             5.32183             3.00002             8.34782             -6.2889              -6.607
Ar             4.53418             5.43457             3.96429            -9.55143             2.23954              9.7042
Ar             5.48091             4.75031             3.97518             4.29259             9.29443             9.27649
Ar              4.7123             4.72552             4.73446             6.08951             6.61421             6.63059
Ar             5.28537             5.27132             4.51812             -8.6203            -11.3235            -9.30416
Ar             4.60348             5.50542             5.54916            -2.20114             5.93409             9.72712
Ar             5.39824             4.55559             5.53671           -0.678216            -5.44294              7.0429
