256
Position of argon atoms in fcc cell after one integration
Ar            0.030185              6.1779           0.0359008              6.0048           -0.453451             7.12322
Ar            0.779228            0.805782          0.00291553             1.35955             6.59998            0.859698
Ar           0.0135975            0.748443            0.811867             2.88011            -4.61539             7.77646
Ar            0.739447          0.00460267            0.766936            -6.43158             1.18702            -1.06153
Ar             6.16151             6.15298              1.5217            -3.65827            -5.38758            -4.57157
Ar            0.772422            0.758648             1.51562           0.0134687            -2.66578            -5.76335
Ar          0.00851209            0.820839             2.29204             1.70742             9.53752            -4.96235
Ar            0.818758             6.14396             2.29796             9.16847            -7.02252            -3.79762
Ar           0.0278994           0.0439335             3.10668             5.50826               8.712             3.38719
Ar            0.806313            0.810903             3.11293             6.67205             7.58468             4.58949
Ar           0.0176153            0.742193             3.85913             3.60592            -5.85718           -0.570039
Ar            0.804095             6.15472             3.90846             6.25259            -5.09872             9.17018
Ar              6.1554             6.16394             4.66317            -4.91707            -3.14581             5.67797
Ar            0.797026            0.798326             4.60754             4.86846             5.13221              -5.282
Ar           0.0250379            0.761648             5.36211             5.21562            -1.95854            -8.80156
Ar            0.734325             6.15472             5.41612            -7.42185             -4.8956             1.80281
Ar          0.00455268             1.58692          0.00559796            0.989272             8.30293              1.1999
Ar            0.818208             2.35065             6.15897             9.02491             6.59978             -4.1713
Ar           0.0167246              2.3411            0.818444             3.56774             4.72333             9.05739
Ar            0.778301              1.5801            0.799006             1.15914             6.95385             5.26385
Ar           0.0132364              1.5632             1.59271             2.78698             3.60804             9.44658
Ar            0.749801             2.34651             1.57889            -4.43347             5.78765             6.69052
Ar              6.1686             2.31466             2.34263            -2.51417           -0.488094              5.0162
Ar            0.810007             1.52882             2.31387             7.39681            -3.16633           -0.653605
Ar           0.0443311             1.56648             3.08339              8.8708             4.27972            -1.22631
Ar            0.741198             2.34064             3.08079             -6.0717             4.64788            -1.74277
Ar             6.17172             2.30893             3.88526            -1.79875             -1.6189             4.59008
Ar            0.744115             1.59453             3.90694            -5.41301             9.79868             8.85967
Ar             6.16843             1.52607             4.66378            -2.38746            -3.71467             5.82678
Ar            0.764865             2.36709             4.59588            -1.39311             9.84881            -7.62216
Ar           0.0202388              2.3189             5.44531             4.14152              0.3191             7.43649
Ar            0.777331             1.56005             5.38843              1.0299             2.99009            -3.64027
Ar           0.0496009             3.13942             6.14583             10.0866             9.84927            -6.82159
Ar            0.750656             3.88281           0.0445088            -4.25096             4.09434             8.93651
Ar             0.01806             3.81524            0.771524             3.63868            -9.21436           -0.121838
Ar            0.773377             3.07656            0.815852            0.178549            -2.56274             8.59805
Ar           0.0364823             3.07994              1.5615             7.37235            -1.92455             3.25913
Ar            0.792659             3.87388             1.57325             4.00667             2.33564             5.59916
Ar             6.14167             3.84359             2.36545            -7.47648             -3.6172             9.53108
Ar            0.745803              3.0527              2.3654            -5.16419            -7.29171             9.50294
Ar           0.0258067              3.0443             3.10375             5.39563            -8.93505             2.77931
Ar            0.730163             3.89726             3.13005            -8.14266             6.97658             7.99097
Ar             6.16661              3.8551             3.86035            -2.70224            -1.35969           -0.320452
Ar            0.786195             3.04346               3.867             2.75315            -9.12224             1.01183
Ar           0.0164293             3.11605             4.64965              3.4412             5.21051             3.01261
Ar            0.753534             3.87359             4.58907            -3.61397             2.29871              -8.918
Ar             6.15807             3.83042             5.44322            -4.57689            -6.26164             7.14258
Ar            0.739554             3.13063             5.40543            -6.39097             8.08006           -0.270202
Ar             6.16502             4.65928             6.15065            -2.85264             4.92085            -5.78319
Ar            0.821197             5.38988             6.13054               9.641            -3.39394            -9.63595
Ar             6.13878             5.40738            0.779919            -8.08182           0.0997537             1.50669
Ar            0.744659             4.66165            0.735867             -5.3778             5.37347            -7.10351
Ar           0.0472582             4.63527             1.52875             9.35816            0.185188            -3.17766
Ar            0.760541             5.44132             1.55348            -2.23492              6.7891              1.7118
Ar             6.16143             5.41909             2.35972            -3.54639              2.3816             8.39163
Ar            0.823397             4.66468              2.3401             10.0489              5.9742               4.514
Ar             6.14169             4.66084             3.07348            -7.41874             5.23054            -3.18212
Ar            0.812588             5.39686             3.13086             7.92898            -1.94303             8.12268
Ar          0.00304359             5.44883             3.88471            0.891317             8.28717             4.48726
Ar            0.820526             4.58672             3.83975             9.49484            -9.41684            -4.39772
Ar             6.16597             4.63909             4.66236            -2.70481            0.934502             5.50854
Ar            0.782287             5.36904             4.59966             1.97285            -7.43296            -6.83112
Ar             6.14858             5.37504             5.45121            -6.10427            -6.25451             8.77552
Ar            0.809549             4.68233             5.36625             7.40464             9.47154            -7.98713
Ar             1.50378           0.0124907             6.14975            -8.08048             2.60444            -5.87235
Ar             2.30532            0.762758           0.0505377            -2.33362            -1.81749              10.052
Ar             1.52298            0.732984             0.81375            -4.29359             -7.6218             8.16003
Ar             2.30199             6.17261            0.791711            -2.99826            -1.45983             3.85042
Ar             1.56065             6.16126             1.52998             3.12135            -3.74331            -2.94154
Ar             2.30422            0.738202             1.52404            -2.53307            -6.51923            -4.09417
Ar             1.51083            0.735489             2.32558            -6.70538            -7.07893             1.66335
Ar             2.36117             6.14658             2.36547             8.72326            -6.57263             9.51559
Ar             1.54843             6.17246             3.09771            0.712601            -1.41236             1.59251
Ar             2.28514            0.799547             3.10314            -6.31074             5.42072             2.67714
Ar             1.55843            0.801096             3.87924             2.68495             5.64689             3.40527
Ar             2.36259             6.15301             3.83316             8.96618             -5.2258            -5.68566
Ar             1.53935           0.0287676             4.59463             -1.0994             5.87951            -7.84902
Ar             2.28204            0.812553             4.66111            -6.92215              7.8948             5.27642
Ar             1.55209            0.800524              5.4474             1.43875             5.53586             7.93155
Ar             2.33161           0.0317596             5.38601               2.851             6.35023            -4.09322
Ar             1.49671             1.53014             6.13801            -9.48957            -2.91118            -8.25066
Ar              2.3658              2.3205            0.028617             9.59166            0.651494             5.82565
Ar             1.56412             2.29518            0.822092              3.8131            -4.33243             9.79746
Ar             2.34893             1.53222            0.721679             6.27036            -2.49502            -9.96777
Ar             1.52638             1.56638              1.5567             -3.6339             4.25754             2.32734
Ar             2.26775             2.32986             1.57041            -9.74785             2.49661             5.03471
Ar              1.5621             2.36353             2.35865             3.41376             9.13356             8.18262
Ar              2.3276             1.52393             2.31015             2.06914            -4.11414            -1.39083
Ar             1.54561             1.56518             3.09172            0.173448             4.01012             0.41847
Ar             2.28384              2.2698             3.08282            -6.59358            -9.33474             -1.3445
Ar             1.50182             2.31542             3.85208            -8.49945           -0.339658            -1.94007
Ar             2.36229             1.51161             3.87841             8.92337            -6.56149             3.23814
Ar             1.56845             1.58751             4.68323             4.66138             8.41435             9.64283
Ar             2.33938             2.30147             4.59162             4.36469            -3.10579            -8.40555
Ar             1.55121             2.32435             5.38572             1.25932             1.40019            -4.16073
Ar             2.33612             1.57354             5.40104             3.73366             5.66253             -1.1495
Ar             1.51766             3.07289           0.0291178            -5.35793             -3.3062             5.90766
Ar             2.31255             3.85667             6.13529           -0.919554            -1.02477            -8.72118
Ar             1.50101             3.90011            0.816695            -8.62736             7.50913             8.71779
Ar             2.31915              3.0522            0.780811            0.387782             -7.3816              1.6368
Ar             1.52037             3.12832             1.51491            -4.81969             7.64231            -5.90584
Ar             2.28892             3.88514             1.52381            -5.57248              4.5835            -4.13821
Ar             1.50122             3.84942              2.2961             -8.6028            -2.46565            -4.17277
Ar             2.36065             3.07434             2.33824             8.57036            -3.00225             4.17239
Ar             1.59432             3.10679             3.07096              9.7662             3.37609            -3.67781
Ar             2.34873             3.85036             3.12477             6.22906              -2.324             6.95845
Ar             1.58341             3.89842             3.85087             7.59605             7.19954            -2.20915
Ar             2.29048               3.136             3.86627            -5.25897             9.17408            0.835729
Ar             1.52991             3.04893             4.65756            -2.94077            -8.02752              4.5837
Ar             2.35816             3.82311             4.65738             8.08707            -7.65434             4.52785
Ar             1.56604             3.89903             5.36717             4.18924             7.33522            -7.82806
Ar             2.34028              3.0774             5.40485             4.55723            -2.37696           -0.382553
Ar              1.5838             4.58425           0.0166191             7.69018            -9.87007              3.5795
Ar             2.30281             5.43133             6.17351            -2.82246             4.79595            -1.22262
Ar               1.539             5.38286            0.818075            -1.14158            -4.69463             9.01532
Ar             2.34701             4.67533            0.764992             5.88194             8.08275            -1.37747
Ar             1.59054             4.65308             1.53946             9.03375             3.67973            -1.05217
Ar             2.30767             5.42533             1.55322            -1.87774             3.67421             1.63667
Ar             1.52242             5.40537             2.32834            -4.43844           -0.262537             2.19864
Ar              2.2786             4.61917             2.30503            -7.60582            -2.98173            -2.40282
Ar             1.53768             4.60564             3.11912             -1.4346            -5.65904              5.8388
Ar             2.32436             5.37304              3.0436             1.44421            -6.61829            -9.07346
Ar              1.5946             5.41677             3.85138             9.79553             1.95522            -2.09769
Ar             2.34922             4.64324             3.85461             6.31939             1.73572            -1.45773
Ar             1.50392             4.60937             4.68018            -8.10267            -4.92443             9.08822
Ar             2.33582             5.40772             4.68311             3.67266            0.110696             9.61842
Ar             1.57365             5.37477             5.40456              5.6833            -6.34552           -0.428895
Ar              2.2764              4.6683             5.43578            -8.05514             6.71839             5.60997
Ar             3.08639             6.16665             6.15539           -0.624268            -2.57041            -4.72875
Ar             3.87276            0.786038              6.1353              2.1297             2.71761            -8.68859
Ar             3.07537            0.805368            0.796357            -2.81368             6.50061             4.70997
Ar             3.85169           0.0506235            0.754556            -2.01459             10.0107            -3.42088
Ar             3.06222             6.16782             1.58347            -5.40634             -2.4494             7.63196
Ar             3.84016            0.817536             1.55866            -4.29769             8.88653             2.72868
Ar             3.04214            0.737711             2.26663            -9.35754            -6.55114            -9.98878
Ar             3.88021             6.13179             2.34406             3.60466             -9.3129             5.29303
Ar              3.0709             6.14148              3.0927            -3.70181            -7.44977             0.61491
Ar             3.85902            0.731846             3.12971           -0.574147            -7.84816             7.91539
Ar             3.07494            0.802961             3.88422            -2.88633             6.09723             4.39035
Ar             3.83127             6.14905             3.86624            -6.04916            -6.13776            0.857156
Ar             3.10658            0.032232             4.63744             3.36914             6.61871            0.611649
Ar             3.84827            0.785739             4.62915            -2.71278             2.66342            -1.02775
Ar             3.05513            0.797909             5.42223            -6.78764             5.05451             3.02926
Ar             3.81782             6.16205             5.36804            -8.70397            -3.54704            -7.60184
Ar             3.13698             1.58316              6.1624             9.32999               7.561            -3.46273
Ar             3.91163             2.32915               6.157             9.79127             2.35145            -4.40992
Ar             3.07629             2.31567            0.819846            -2.62775           -0.297086             9.32541
Ar             3.85668             1.59431            0.805985            -1.04115             9.76801             6.67069
Ar             3.04476             1.51732             1.57533            -8.82423            -5.43356             6.01511
Ar             3.89261             2.28461             1.54816             6.02426            -6.42433            0.649626
Ar             3.12334             2.30467              2.2731             6.65996            -2.45481            -8.69062
Ar             3.91116             1.54948             2.31803             9.69613            0.904944            0.149214
Ar             3.08729             1.49873             3.13982           -0.451481            -9.07435             9.94089
Ar             3.82019             2.29585             3.13016            -8.24058            -4.20449             8.00345
Ar             3.08064             2.27178             3.83538            -1.74595            -8.97397            -5.24342
Ar             3.82043             1.56214             3.86975            -8.21965             3.42562             1.53645
Ar             3.10159             1.50196             4.59673             2.36618            -8.45756            -7.45502
Ar             3.89272             2.27801             4.62611             6.06325            -7.71586            -1.63639
Ar             3.07589             2.27909             5.43038            -2.71353            -7.51243             4.61068
Ar             3.89579             1.54543             5.43878             6.66673            0.113137              6.3584
Ar             3.13312             3.07317             6.13299             8.57278             -3.2289            -9.19228
Ar             3.88544             3.90424           0.0138016             4.62858             8.31039             2.81728
Ar             3.12052             3.83897            0.792758             6.11085            -4.53853             4.01469
Ar             3.86984             3.11597            0.734648             1.54068             5.21047            -7.29124
Ar               3.133             3.10548              1.5126             8.54996              3.1397            -6.36125
Ar             3.85353             3.90556             1.53963            -1.66129             8.60835            -1.00827
Ar             3.07319             3.83288             2.30554            -3.22498            -5.74411            -2.27925
Ar             3.85506             3.03978             2.34972            -1.35583             -9.8108             6.40237
Ar             3.04018             3.13584             3.07943            -9.75011             9.14965            -2.02363
Ar             3.81872             3.84601             3.08009            -8.51369            -3.14698             -1.8576
Ar               3.053             3.87942             3.87729            -7.22077             3.44634             3.01992
Ar             3.91133             3.12564             3.82921             9.73772             7.10371              -6.461
Ar             3.12679             3.07784             4.60321             7.33734            -2.27834             -6.1213
Ar             3.82183             3.81555             4.65015             -7.9261            -9.15786             3.12218
Ar             3.08113             3.81734             5.41267            -1.67839            -8.80263             1.16389
Ar             3.85505             3.05066             5.37658             -1.3707            -7.66347            -5.90746
Ar             3.08128             4.64312               6.136            -1.64458             1.73576            -8.53505
Ar             3.89882             5.45641             6.16489             7.27036             9.71049            -2.93534
Ar             3.06999             5.39746            0.805489            -3.87545             -1.8399             6.52725
Ar             3.87453             4.64929            0.803805             2.47725             2.93531             6.17332
Ar             3.05428              4.6073             1.50985            -6.95041            -5.33928             -6.9129
Ar             3.86634             5.39543             1.57097            0.871846            -2.20347             5.14699
Ar             3.04706             5.45101             2.34765            -8.41587             8.78012             6.02392
Ar             3.85985             4.58843             2.27139           -0.399095            -9.06269            -9.04079
Ar             3.10073             4.67128             3.09462             2.19078             7.27955             1.01052
Ar             3.90914             5.39399             3.10975             9.32046            -2.49761              3.9707
Ar             3.06718             5.44935             3.82594            -4.42436             8.42155            -7.11822
Ar             3.83728              4.5956             3.84862            -4.85074            -7.63828            -2.65554
Ar             3.04926             4.60464             4.64133            -7.95093            -5.85626             1.36163
Ar             3.90946             5.45424             4.58376             9.38345             9.28341            -9.99689
Ar             3.07099             5.36286             5.42788            -3.67245            -8.65279             4.18581
Ar             3.88894             4.66829             5.36358             5.31827             6.68149            -8.50362
Ar             4.68031           0.0197942           0.0150925             9.08414             4.05471              3.2041
Ar             5.38819            0.721764            0.012984            -3.69373            -9.98568             2.59726
Ar               4.632            0.756338            0.722645           -0.438373            -3.20511            -9.75145
Ar             5.37248           0.0400477            0.812777            -6.78668             8.03975              7.9177
Ar             4.59216             6.14632             1.56006            -8.31082            -6.57518              3.0078
Ar              5.3954             0.81234             1.52385            -2.34984             7.87428            -4.14135
Ar             4.62251            0.823056             2.29234            -2.32892             9.99375            -4.90289
Ar             5.36321           0.0112774             2.30461            -8.55661             2.40396            -2.47225
Ar             4.63594             6.13456             3.06379             0.30351            -8.87787            -5.09868
Ar             5.37821             0.81384             3.11105            -5.66925             8.19609             4.24998
Ar             4.64457            0.786333             3.82917              2.0337             2.76038            -6.48338
Ar             5.45036             6.16199             3.88763             8.36822            -3.49821             5.06384
Ar             4.63344           0.0422821             4.61373           -0.184154             8.50109            -4.03777
Ar             5.41763             0.81806             4.65041             2.05492             9.02467             3.19432
Ar             4.68087            0.745263             5.35806             9.20024            -5.38988            -9.65272
Ar               5.367            0.039798              5.3708            -7.85527             7.92934            -7.17343
Ar             4.59793             1.55603             6.14382            -7.20889             2.21988            -6.96861
Ar             5.45055             2.33912           0.0131726             8.43216             4.31301             2.71262
Ar             4.65101             2.30991            0.779253             3.27983            -1.44024             1.39177
Ar             5.43105             1.54938            0.814343              4.6749            0.896291             8.26247
Ar             4.67275             1.50141             1.51433             7.58224            -8.58192            -6.00545
Ar             5.43968             2.35754             1.53312             6.29989             7.96788            -2.32352
Ar             4.66218             2.36024             2.33209                5.49             8.49918             2.94252
Ar             5.40078             1.55055              2.3406            -1.27769             1.12416             4.61768
Ar             4.66884             1.50717             3.11707             6.83414            -7.46117              5.4173
Ar             5.38904             2.33001             3.07996            -3.53219             2.54034            -1.91642
Ar             4.63731             2.36416             3.90581            0.572782             9.27714             8.65627
Ar             5.41134             1.50243             3.86017            0.854922            -8.37953           -0.363976
Ar             4.66054              1.5281             4.63608             5.16259            -3.29777            0.342636
Ar             5.42116             2.34116             4.61429             2.80552             4.72499            -3.95488
Ar             4.67381             2.36576             5.43924             7.76278              9.5786             6.38204
Ar             5.45042             1.59358             5.35675             8.49946             9.60802            -9.88564
Ar             4.59774             3.11903             6.13794            -7.22342             5.77895            -8.22581
Ar             5.41051             3.91178           0.0474898            0.686985             9.85339             9.58063
Ar             4.63003             3.88898            0.768212           -0.840952             5.33782            -0.82737
Ar             5.45287             3.04106            0.802488             8.85436            -9.59014             5.91187
Ar             4.58879             3.12085             1.55242            -8.96839             6.16343             1.50771
Ar             5.39767             3.89295             1.53865            -1.82936              6.1289            -1.20451
Ar             4.60103             3.82407             2.30904            -6.56768            -7.45558            -1.62469
Ar             5.41089              3.0573             2.31762            0.783613            -6.37807           0.0906776
Ar             4.65116             3.08848             3.11479             3.31007            -0.22433             4.97108
Ar             5.42634             3.88253             3.04215             3.89909             4.05664            -9.36738
Ar             4.64249             3.90449             3.81974             1.58556             8.38332            -8.33645
Ar             5.45551             3.07925             3.85892             9.50852            -2.05134           -0.597865
Ar             4.67304             3.06871             4.63322             7.63022            -4.13764           -0.232764
Ar             5.37689             3.90802             4.67329            -5.89408             9.07968             7.70554
Ar             4.67124             3.90222             5.37686              7.2982             7.93974            -5.92925
Ar             5.41744             3.13107             5.42657             2.04208             8.17832             3.86907
Ar             4.65353             4.64916           0.0230429             3.80563             2.92171             4.76475
Ar             5.38449              5.3901             6.13214            -4.38126             -3.3377            -9.44714
Ar             4.64521             5.39177              0.7729             2.13559             -2.9888            0.138758
Ar              5.3704             4.61044            0.736405            -7.16431             -4.7334            -7.09316
Ar             4.66015             4.58834             1.58876             5.09841            -9.08607             8.67412
Ar             5.43245             5.37833             1.56153              5.0465            -5.61468             3.28648
Ar             4.62518             5.36611             2.36093             -1.8185            -7.99909             8.63281
Ar             5.39716             4.61395             2.29493            -1.89169             -4.0133            -4.39141
Ar             4.58566             4.63163             3.12591            -9.60911           -0.532981             7.17244
Ar             5.43809             5.37932             3.06079             6.19266            -5.42683             -5.6911
Ar             4.60365             5.41603             3.89328             -6.0678             1.79391             6.19597
Ar             5.43212             4.67116              3.8976             4.96166               7.266             7.04607
Ar             4.65906             4.66395             4.66728             4.88799             5.84094             6.50381
Ar              5.3676             5.36422             4.59774            -7.75649            -8.40784            -7.25391
Ar             4.62429             5.44106             5.45421             -1.9884             6.64352             9.27796
Ar             5.40401             4.60858             5.45304            -0.53238            -5.08266             8.96289
