256
Position of argon atoms in fcc cell after one integration
Ar        2.96503e-006             6.17915        3.53622e-006             5.82998          -0.0619605             6.95306
Ar            0.772394            0.772397         1.8176e-007              1.3419             6.52028            0.357401
Ar        1.27244e-006            0.772391            0.772397             2.50193            -4.78133              7.7578
Ar             0.77239        3.47372e-007            0.772393            -6.52943            0.683036            -1.10629
Ar             6.17915             6.17915             1.54478            -3.30607            -4.92631            -4.52376
Ar            0.772394            0.772392             1.54478         -0.00945942            -2.76497             -5.7213
Ar        8.12234e-007            0.772398             2.31718             1.59706             9.49675            -4.93393
Ar            0.772398             6.17914             2.31718             9.06278            -6.81387            -3.76904
Ar        2.75488e-006        4.33059e-006             3.08958             5.41675               8.515             3.35276
Ar            0.772397            0.772397             3.08958             6.67195             7.52648             4.59365
Ar        1.68049e-006             0.77239             3.86197             3.30427            -6.02251           -0.551775
Ar            0.772397             6.17915             3.86197             6.21326            -4.57961             9.12687
Ar             6.17915             6.17915             4.63436            -4.45296            -2.85501             5.65295
Ar            0.772396            0.772396             4.63436             4.80453             5.04167            -5.27238
Ar        2.38997e-006            0.772392             5.40675             4.69927            -2.22784            -8.71428
Ar             0.77239             6.17915             5.40676            -7.54234            -4.68795             1.88755
Ar        4.05887e-007             1.54479        5.06775e-007            0.798082             8.27723            0.996454
Ar            0.772398             2.31718             6.17915             9.00479             6.57308            -3.81085
Ar        1.57914e-006             2.31718            0.772398             3.10498             4.69314             9.03104
Ar            0.772394             1.54479            0.772396             1.16764             6.93838             5.18876
Ar        1.23984e-006             1.54479             1.54479             2.43785             3.63048              9.4113
Ar            0.772391             2.31718             1.54479            -4.45845              5.7564             6.71743
Ar             6.17915             2.31718             2.31718            -1.74536           -0.500504             4.99649
Ar            0.772397             1.54479             2.31718             7.38426            -3.11991           -0.648824
Ar        4.35031e-006             1.54479             3.08957             8.55376             4.25764            -1.21158
Ar             0.77239             2.31718             3.08957             -6.1922             4.59731            -1.72094
Ar             6.17915             2.31718             3.86197            -1.19786            -1.62328             4.57381
Ar            0.772391             1.54479             3.86197            -5.65569             9.77508             8.83236
Ar             6.17915             1.54479             4.63436             -1.8833            -3.65795             5.75976
Ar            0.772393             2.31719             4.63436            -1.54698             9.79736            -7.54051
Ar        1.95134e-006             2.31718             5.40676             3.83681            0.348216             7.67447
Ar            0.772394             1.54479             5.40675            0.930511             3.01187            -3.55634
Ar        4.85288e-006             3.08958             6.17915             9.54194             9.77996            -6.33412
Ar            0.772391             3.86197        4.37142e-006             -4.3144             4.10016             8.59526
Ar        1.75484e-006             3.86196            0.772393             3.45045            -9.17264           -0.219423
Ar            0.772394             3.08957            0.772398            0.205998            -2.55684             8.49025
Ar        3.55158e-006             3.08957             1.54479             6.98328            -1.87963             3.30393
Ar            0.772396             3.86197             1.54479             3.96588             2.34626             5.59404
Ar             6.17914             3.86197             2.31719            -7.22221            -3.61003             9.47111
Ar            0.772391             3.08957             2.31719            -5.28641            -7.23106              9.4702
Ar         2.4401e-006             3.08957             3.08958             4.79785            -8.88577             2.79092
Ar            0.772389             3.86197             3.08958             -8.4231             6.91977             7.94244
Ar             6.17915             3.86197             3.86197            -2.26387            -1.34587           -0.318308
Ar            0.772395             3.08957             3.86197             2.66854             -9.0408            0.979949
Ar        1.53925e-006             3.08958             4.63436             3.02655             5.20188             3.00424
Ar            0.772392             3.86197             4.63436            -3.79558             2.27851            -8.90194
Ar             6.17915             3.86196             5.40676             -3.8841            -6.17512             7.21242
Ar             0.77239             3.08958             5.40675            -6.49708             8.06909           -0.225855
Ar             6.17915             4.63436             6.17915            -2.68288              4.8912            -5.44054
Ar            0.772398             5.40675             6.17914             9.53246            -3.25482             -9.4406
Ar             6.17914             5.40675            0.772394            -7.78558            0.163561             1.42797
Ar            0.772391             4.63436             0.77239            -5.51805             5.35631            -7.24723
Ar         4.6643e-006             4.63436             1.54479             9.17115            0.175788            -3.13578
Ar            0.772392             5.40676             1.54479             -2.4195             6.80989             1.71453
Ar             6.17915             5.40676             2.31718            -3.37383              2.4729             8.35047
Ar            0.772399             4.63436             2.31718             9.98017             5.95386             4.50087
Ar             6.17914             4.63436             3.08957            -7.28202             5.19028            -3.15409
Ar            0.772398             5.40675             3.08958             7.86279            -1.93733             8.11487
Ar        1.87348e-007             5.40676             3.86197             0.36839             8.27691             4.46303
Ar            0.772398             4.63436             3.86197             9.40917            -9.34416             -4.3553
Ar             6.17915             4.63436             4.63436            -2.46498            0.927153             5.50127
Ar            0.772395             5.40675             4.63436             1.89216            -7.39556            -6.81539
Ar             6.17915             5.40675             5.40676            -5.89984            -6.21755             8.73652
Ar            0.772397             4.63437             5.40675              7.2036             9.41008            -7.93208
Ar             1.54478        1.17512e-006             6.17915             -8.0517             2.31058            -5.65478
Ar             2.31718            0.772393        4.96805e-006             -2.3307            -1.95837              9.7684
Ar             1.54478             0.77239            0.772398            -4.28388             -7.8341             8.09321
Ar             2.31718             6.17915            0.772395            -2.98074            -1.14109              3.7309
Ar             1.54479             6.17915             1.54479             3.12387            -3.33629            -2.89071
Ar             2.31718             0.77239             1.54479             -2.5547            -6.87825            -4.07208
Ar             1.54478             0.77239             2.31718            -6.66036            -7.39798             1.64586
Ar             2.31718             6.17915             2.31719              8.6169            -6.27003             9.48241
Ar             1.54479             6.17915             3.08957            0.719321            -1.21677             1.60192
Ar             2.31718            0.772396             3.08958            -6.29414             5.23821             2.66091
Ar             1.54479            0.772396             3.86197             2.67983             5.60015             3.39152
Ar             2.31719             6.17915             3.86196             8.91232            -5.01633            -5.65355
Ar             1.54479        2.78033e-006             4.63436            -1.05045             5.46681            -7.79198
Ar             2.31718            0.772398             4.63436            -6.90298             7.88873             5.24461
Ar             1.54479            0.772396             5.40676             1.43193              5.5208             8.04985
Ar             2.31718        3.12056e-006             5.40675             2.82876             6.13577            -4.05837
Ar             1.54478             1.54479             6.17914            -9.43327            -2.86691            -7.92872
Ar             2.31719             2.31718        2.76714e-006             9.54161            0.652486             5.44087
Ar             1.54479             2.31718            0.772398             3.79498            -4.32264             9.73358
Ar             2.31718             1.54479            0.772388             6.22608            -2.45583            -9.99847
Ar             1.54479             1.54479             1.54479            -3.61034             4.24573             2.35298
Ar             2.31718             2.31718             1.54479            -9.70428             2.49031             5.03769
Ar             1.54479             2.31719             2.31718             3.40403             9.10367             8.13929
Ar             2.31718             1.54478             2.31718             2.03955            -4.08765            -1.37791
Ar             1.54479             1.54479             3.08957            0.156865             4.01501            0.424818
Ar             2.31718             2.31718             3.08957            -6.53584            -9.30509            -1.32115
Ar             1.54478             2.31718             3.86197             -8.4167           -0.348216            -1.94464
Ar             2.31719             1.54478             3.86197             8.84304            -6.50075             3.22947
Ar             1.54479             1.54479             4.63437             4.65438             8.39412             9.59258
Ar             2.31718             2.31718             4.63436             4.36537            -3.08176            -8.40693
Ar             1.54479             2.31718             5.40675             1.26591             1.41484            -4.09926
Ar             2.31718             1.54479             5.40675             3.71838             5.64837            -1.08648
Ar             1.54478             3.08957        2.83636e-006            -5.32151            -3.26731             5.57698
Ar             2.31718             3.86197             6.17914           -0.906095            -1.04892            -8.51284
Ar             1.54478             3.86197            0.772398            -8.59401             7.49199             8.69991
Ar             2.31718             3.08957            0.772394            0.388195            -7.33207             1.64098
Ar             1.54478             3.08958             1.54478            -4.79232             7.60491            -5.85894
Ar             2.31718             3.86197             1.54478            -5.54888             4.54207            -4.11206
Ar             1.54478             3.86197             2.31718            -8.54183            -2.46864             -4.1316
Ar             2.31718             3.08957             2.31718             8.53389            -2.99081             4.12458
Ar             1.54479             3.08958             3.08957             9.72259             3.38725            -3.65062
Ar             2.31718             3.86197             3.08958             6.19098            -2.26417             6.90146
Ar             1.54479             3.86197             3.86197             7.59758             7.15171            -2.17048
Ar             2.31718             3.08958             3.86197             -5.2443              9.1055            0.849025
Ar             1.54479             3.08957             4.63436            -2.91696            -7.97388             4.54482
Ar             2.31718             3.86196             4.63436             8.04071            -7.63054             4.52315
Ar             1.54479             3.86197             5.40675             4.17646             7.26493            -7.72761
Ar             2.31718             3.08957             5.40675             4.53352            -2.40089           -0.345182
Ar             1.54479             4.63436        1.54018e-006             7.66716            -9.84863             3.02838
Ar             2.31718             5.40676             6.17915            -2.82785             4.87776           -0.979036
Ar             1.54479             5.40675            0.772398            -1.13102            -4.67698             8.92515
Ar             2.31718             4.63437            0.772393             5.85681             8.03949            -1.53568
Ar             1.54479             4.63436             1.54479             8.97702             3.67992            -1.04465
Ar             2.31718             5.40676             1.54479            -1.86651             3.63566             1.67424
Ar             1.54478             5.40675             2.31718            -4.37269           -0.282307             2.19306
Ar             2.31718             4.63436             2.31718            -7.57439            -2.98837            -2.38136
Ar             1.54479             4.63436             3.08958            -1.37547            -5.64074             5.79546
Ar             2.31718             5.40675             3.08957             1.39836             -6.6384            -9.02402
Ar             1.54479             5.40676             3.86197             9.79278             1.98644            -2.07434
Ar             2.31718             4.63436             3.86197             6.28895             1.75024            -1.43834
Ar             1.54478             4.63436             4.63437            -7.99921            -4.91317             8.96756
Ar             2.31718             5.40675             4.63437             3.66131            0.272204             9.56877
Ar             1.54479             5.40675             5.40675             5.67553            -6.22122           -0.420865
Ar             2.31718             4.63436             5.40676            -8.00226             6.64693             5.76188
Ar             3.08957             6.17915             6.17915            -0.62685            -2.32521            -4.57473
Ar             3.86197            0.772395             6.17914             2.11859             2.63925            -8.52779
Ar             3.08957            0.772397            0.772396             -2.7839             6.43514             4.67392
Ar             3.86197        5.00313e-006            0.772392             -2.0249             9.83737            -3.59446
Ar             3.08957             6.17915             1.54479            -5.36485            -2.05512             7.59758
Ar             3.86197            0.772398             1.54479            -4.28358             8.83115             2.73263
Ar             3.08957             0.77239             2.31718            -9.30967            -6.99392            -9.91424
Ar             3.86197             6.17914             2.31718             3.57952            -9.26572             5.28001
Ar             3.08957             6.17914             3.08957            -3.65917            -7.33695            0.613727
Ar             3.86197            0.772389             3.08958           -0.581683            -8.09319             7.87774
Ar             3.08957            0.772397             3.86197            -2.87301             5.92914             4.36842
Ar             3.86196             6.17915             3.86197            -6.02771            -5.71979            0.832545
Ar             3.08958        3.10705e-006             4.63436             3.33048             6.10923            0.604267
Ar             3.86197            0.772395             4.63436            -2.68441             2.57638            -1.02206
Ar             3.08957            0.772396             5.40676            -6.76382             4.96933             3.06008
Ar             3.86196             6.17915             5.40675            -8.66878            -3.19041            -7.61011
Ar             3.08958             1.54479             6.17915             9.31608             7.54204            -3.12052
Ar             3.86197             2.31718             6.17915             9.75127             2.35328            -4.28602
Ar             3.08957             2.31718            0.772398            -2.60445           -0.296335              9.2935
Ar             3.86197             1.54479            0.772397            -1.03946             9.72228              6.5151
Ar             3.08957             1.54478             1.54479            -8.80276             -5.3798             6.00513
Ar             3.86197             2.31718             1.54479             6.02344            -6.39515            0.674458
Ar             3.08958             2.31718             2.31718             6.62862            -2.46254            -8.65413
Ar             3.86197             1.54479             2.31718             9.65789            0.933865            0.174566
Ar             3.08957             1.54478             3.08958           -0.446791             -9.0405             9.84893
Ar             3.86196             2.31718             3.08958            -8.20063            -4.18958             7.96838
Ar             3.08957             2.31718             3.86197               -1.76            -8.90194            -5.22141
Ar             3.86196             1.54479             3.86197            -8.14081             3.41044             1.52837
Ar             3.08958             1.54478             4.63436             2.36061            -8.40205             -7.3748
Ar             3.86197             2.31718             4.63436             6.03778            -7.69463            -1.61626
Ar             3.08957             2.31718             5.40676            -2.68014            -7.47978             4.67115
Ar             3.86197             1.54479             5.40676             6.64388            0.137027             6.26208
Ar             3.08958             3.08957             6.17914             8.55525            -3.22184             -8.9346
Ar             3.86197             3.86197        1.30922e-006             4.60799             8.30927             2.57427
Ar             3.08958             3.86197            0.772396             6.07074             -4.5143             3.96223
Ar             3.86197             3.08958             0.77239             1.55126             5.17869            -7.52891
Ar             3.08958             3.08958             1.54478             8.53084             3.12082            -6.30665
Ar             3.86197             3.86197             1.54479            -1.65716             8.55159            -1.01596
Ar             3.08957             3.86196             2.31718            -3.21879            -5.70757            -2.29194
Ar             3.86197             3.08957             2.31718            -1.35929            -9.78027             6.39302
Ar             3.08957             3.08958             3.08957            -9.69573              9.0701            -1.98126
Ar             3.86196             3.86197             3.08957            -8.49788            -3.13242            -1.86712
Ar             3.08957             3.86197             3.86197            -7.17612             3.42479             3.00974
Ar             3.86197             3.08958             3.86196             9.68749             7.08335            -6.43178
Ar             3.08958             3.08957             4.63436             7.30857            -2.32154            -6.12415
Ar             3.86196             3.86196             4.63436            -7.87317            -9.11039             3.08848
Ar             3.08957             3.86196             5.40676            -1.65227             -8.7582             1.17373
Ar             3.86197             3.08957             5.40675            -1.35472            -7.64275             -5.9377
Ar             3.08957             4.63436             6.17914            -1.62328             1.71667            -8.39778
Ar             3.86197             5.40676             6.17915             7.23228             9.81535            -2.65328
Ar             3.08957             5.40675            0.772397            -3.83679            -1.81342             6.44155
Ar             3.86197             4.63436            0.772397             2.46498             2.93039             6.15437
Ar             3.08957             4.63436             1.54478             -6.9335            -5.31022            -6.84134
Ar             3.86197             5.40675             1.54479            0.853908            -2.23122             5.15183
Ar             3.08957             5.40676             2.31718            -8.33338             8.65901             5.97644
Ar             3.86197             4.63436             2.31718           -0.426038            -9.01639            -8.98434
Ar             3.08958             4.63436             3.08957             2.19306             7.24845             0.98117
Ar             3.86197             5.40675             3.08958             9.25382            -2.52206             3.96252
Ar             3.08957             5.40676             3.86196            -4.39436             8.36663            -7.06656
Ar             3.86197             4.63436             3.86197            -4.85549            -7.61193            -2.60872
Ar             3.08957             4.63436             4.63436            -7.91223            -5.84063             1.37364
Ar             3.86197             5.40676             4.63436             9.31425             9.38961             -9.9292
Ar             3.08957             5.40675             5.40676            -3.64513            -8.59586             4.13311
Ar             3.86197             4.63436             5.40675             5.29557             6.66402            -8.45426
Ar             4.63437        1.91114e-006        1.40142e-006             9.00632             3.75777             2.75555
Ar             5.40675            0.772388        1.25925e-006            -3.57679            -9.95056             2.47599
Ar             4.63436            0.772392            0.772389           -0.482496             -3.1431            -9.82421
Ar             5.40675        3.91074e-006            0.772398            -6.68937             7.68948             7.94366
Ar             4.63436             6.17915             1.54479            -8.29096             -6.2972             2.99936
Ar             5.40675            0.772398             1.54478            -2.12991             7.82251            -4.10566
Ar             4.63436            0.772399             2.31718            -2.33772             9.90601            -4.87564
Ar             5.40675         1.0331e-006             2.31718            -8.54123             2.03134            -2.47078
Ar             4.63436             6.17914             3.08957             0.30946              -8.652             -5.0557
Ar             5.40675            0.772398             3.08958            -5.53181             8.10267             4.20881
Ar             4.63436            0.772395             3.86196             1.98859             2.69266            -6.43178
Ar             5.40676             6.17915             3.86197             8.71149            -3.23283             5.03616
Ar             4.63436        4.13099e-006             4.63436           -0.179753             8.12253            -4.07025
Ar             5.40676            0.772398             4.63436             2.20739             8.92942             3.13242
Ar             4.63437            0.772391             5.40675             9.11313            -5.31876            -9.50775
Ar             5.40675        3.92037e-006             5.40675            -7.77583             7.70839            -6.97655
Ar             4.63436             1.54479             6.17914             -7.1456             2.20466            -6.86545
Ar             5.40676             2.31718        1.23907e-006             8.75543             4.31196             2.43632
Ar             4.63436             2.31718            0.772394             3.26365            -1.42308             1.28484
Ar             5.40676             1.54479            0.772398             4.88629            0.904874             8.23451
Ar             4.63437             1.54478             1.54478             7.52678            -8.49757            -5.97247
Ar             5.40676             2.31718             1.54479             6.59961             7.91955            -2.28065
Ar             4.63436             2.31718             2.31718             5.46129             8.44905             2.92734
Ar             5.40675             1.54479             2.31718            -1.07824             1.13895             4.59822
Ar             4.63436             1.54478             3.08958             6.74795            -7.36168             5.40117
Ar             5.40675             2.31718             3.08957            -3.43243             2.51289            -1.87689
Ar             4.63436             2.31719             3.86197             0.58382              9.2169             8.60347
Ar             5.40676             1.54478             3.86197            0.951549            -8.29707           -0.350352
Ar             4.63436             1.54479             4.63436             5.13932            -3.27158            0.336925
Ar             5.40676             2.31718             4.63436             2.87269             4.70992            -3.94696
Ar             4.63437             2.31719             5.40676             7.74774             9.53825             6.40155
Ar             5.40676             1.54479             5.40675             8.67181             9.58403            -9.76716
Ar             4.63436             3.08958             6.17914            -7.19199             5.79577            -7.94947
Ar             5.40676             3.86197        4.63823e-006            0.790412             9.76745             9.11988
Ar             4.63436             3.86197            0.772393            -0.86123             5.29771           -0.831018
Ar             5.40676             3.08957            0.772397             9.22328            -9.51567             5.90045
Ar             4.63436             3.08958             1.54479            -8.95962             6.14277             1.50181
Ar             5.40675             3.86197             1.54479            -1.72462              6.0744            -1.20823
Ar             4.63436             3.86196             2.31718            -6.54652            -7.44804            -1.58849
Ar             5.40676             3.08957             2.31718             0.85389            -6.32984           0.0836207
Ar             4.63436             3.08957             3.08958             3.29203           -0.211493             4.95163
Ar             5.40676             3.86197             3.08957             3.83982             4.03638            -9.30479
Ar             4.63436             3.86197             3.86196             1.60527             8.34986            -8.28486
Ar             5.40676             3.08957             3.86197             9.65024            -2.01727           -0.598468
Ar             4.63437             3.08957             4.63436             7.58721             -4.0849           -0.221869
Ar             5.40675             3.86197             4.63437            -5.85163             9.04263             7.62566
Ar             4.63436             3.86197             5.40675             7.22953             7.90063            -5.81288
Ar             5.40676             3.08958             5.40676             2.17625             8.15027             3.93626
Ar             4.63436             4.63436        2.20806e-006             3.75134             2.89926             4.34159
Ar             5.40675             5.40675             6.17914             -4.3663            -3.20385            -9.05271
Ar             4.63436             5.40675            0.772394             2.13263            -2.88249           0.0515809
Ar             5.40675             4.63436             0.77239            -7.11968            -4.69741            -7.09891
Ar             4.63436             4.63436             1.54479             5.05265            -9.03134             8.63094
Ar             5.40676             5.40675             1.54479             5.06484            -5.54645             3.29936
Ar             4.63436             5.40675             2.31718            -1.79907            -7.97298             8.58669
Ar             5.40675             4.63436             2.31718            -1.87507            -4.01868            -4.36781
Ar             4.63436             4.63436             3.08958             -9.5587           -0.539871             7.12973
Ar             5.40676             5.40675             3.08957             6.17388            -5.35083            -5.64531
Ar             4.63436             5.40676             3.86197            -6.02954             1.85002             6.13788
Ar             5.40676             4.63436             3.86197             5.01112              7.2216             6.98752
Ar             4.63436             4.63436             4.63436             4.84054             5.80004             6.45009
Ar             5.40675             5.40675             4.63436            -7.65894            -8.32119            -7.17399
Ar             4.63436             5.40676             5.40676            -1.97699             6.83765             9.38473
Ar             5.40675             4.63436             5.40676           -0.549039            -5.06699             9.19277
