256
Position of argon atoms in fcc cell after one integration
Ar              6.1193             6.16761           0.0176876            -5.36241           -0.788841             1.45293
Ar            0.841258             0.72302             6.17663             6.57286            -4.79456            -1.54231
Ar            0.042993            0.674075            0.836396             3.65927            -9.77528             6.29205
Ar            0.806536             6.08856            0.847906             3.26529            -8.55543             7.31464
Ar             6.08884           0.0823389             1.62817            -8.12889              7.4126             8.11278
Ar            0.859036            0.856209             1.56826             8.29038             7.83321             2.52228
Ar             6.10798            0.702643             2.34951            -5.82648            -6.87516             3.15097
Ar            0.691215             6.10512             2.28929            -8.05992             -6.0699            -2.77786
Ar           0.0590846           0.0395353             3.00197             3.80236             1.66025            -8.37164
Ar            0.669485            0.677831             3.14812            -10.1902            -9.40292             5.65126
Ar              6.0897            0.704999             3.81928            -8.16895            -7.01497            -4.13105
Ar            0.795034        7.24336e-006             3.79406             2.17325           -0.200279            -6.50918
Ar           0.0260793        3.69849e-005             4.62555             1.67343           -0.322158           -0.952443
Ar             0.70914            0.723823             4.58359            -6.33268            -5.12232            -4.99794
Ar           0.0456718            0.767504             5.47099             3.88251           -0.831454             6.51301
Ar            0.722446             6.17907             5.38076            -4.82574            0.464188            -2.42828
Ar             6.14204               1.614             6.14138             -2.9739             6.54044            -3.56038
Ar            0.735662             2.24097             6.17706            -4.06487            -7.41723           -0.161474
Ar             6.17321             2.31222            0.824319            0.255236           -0.534568             4.87417
Ar            0.810786             1.47136            0.869787             3.48977            -7.09718             9.06392
Ar           0.0892016             1.53426             1.53378             8.57121            -1.05968           -0.969128
Ar            0.789831             2.29359             1.45234             1.34042            -2.25891            -8.76782
Ar             6.08239             2.28682             2.31539             -9.3792            -2.95454          -0.0933755
Ar            0.861342             1.56726             2.41056             8.65287              2.1543             9.07803
Ar             6.11372             1.59878             3.04226            -6.42113             5.21124             -4.5925
Ar            0.773231             2.37206             3.05986           0.0747666             5.38504            -2.92149
Ar             6.17708              2.2999             3.90171            0.999652            -1.69274             3.73163
Ar            0.756155             1.55926             3.83027            -1.66965             1.37084             -3.1448
Ar             6.16836             1.48824             4.73428           -0.207095            -5.54602             9.70238
Ar            0.669633             2.27383             4.55564            -11.2242            -4.23019            -7.56779
Ar           0.0176913             2.36694             5.32708             0.76881             4.84731             -7.7644
Ar             0.81547             1.57476             5.36351             3.93315             2.88204             -4.3564
Ar         0.000841122             3.14988           0.0179137            0.279346             5.85277             1.15032
Ar            0.805131              3.8061             6.17456              3.1018            -5.36416            0.509315
Ar             6.10558             3.90205            0.866073            -5.14821             3.74826             8.91731
Ar            0.712762             3.00828            0.774005            -6.35275            -7.84941           0.0391635
Ar         0.000363018             3.14443             1.51171           -0.266539             5.18927            -3.18485
Ar            0.692424             3.80594             1.61192            -8.59027            -5.40504             6.46826
Ar         0.000905076             3.93303             2.26654            0.976922             6.86393            -4.84763
Ar            0.692757             3.13913             2.32813            -8.33922             4.76165             1.08491
Ar             6.14812             3.18786              3.0106            -2.35336             9.56774            -7.65194
Ar            0.702978             3.90286             3.12475            -6.86513             3.87549             3.34549
Ar           0.0419165             3.92035             3.83175             3.08385             5.47517            -2.83258
Ar            0.769099             3.01663             3.84033           -0.556041            -6.96528            -2.11747
Ar             6.09375             3.08682             4.63388            -7.89341           -0.210839            -0.10777
Ar            0.699246             3.80533             4.63156             -7.2342            -5.57496           -0.253213
Ar           0.0232909             3.86377             5.45227             1.82774            0.133778              4.7149
Ar            0.818924             3.04583             5.43688             4.58496            -4.27018             3.06079
Ar             6.16818             4.56183        4.24979e-005           -0.768483            -7.09487          0.00601831
Ar            0.798398             5.48553           0.0895887             2.39187             8.23796             8.15727
Ar             6.08466             5.33322            0.690863            -8.85419            -7.10709            -7.93487
Ar            0.838886             4.58348            0.804518             6.59529            -4.98854             3.10041
Ar           0.0522812             4.58597             1.45225             2.56711             -4.5157            -8.81768
Ar            0.762814             5.41383             1.58069            -1.00936            0.584456              3.4797
Ar           0.0155957             5.40966              2.4175            0.940533            0.569895             9.70984
Ar            0.676993             4.66568             2.38582            -9.52218             3.03127             6.63892
Ar           0.0235819             4.54558             3.13159            0.902458            -8.40361             4.05071
Ar            0.710123             5.39513             3.07539            -5.90458           -0.931557            -1.32205
Ar           0.0282672             5.44016             3.76809             2.52473             3.34474            -9.16454
Ar             0.78968             4.57787             3.90526             1.54798            -5.30919             4.28567
Ar             6.08991             4.60735             4.53468            -8.05862            -2.52694            -9.59363
Ar            0.749946             5.49457             4.53828            -2.12148             8.88898            -9.41308
Ar           0.0274511              5.4985             5.37468             1.54556             9.08975            -2.92677
Ar            0.730953             4.61381             5.35567            -4.03487            -1.99414            -5.12562
Ar             1.45412           0.0159861             6.17591            -8.66324            0.757841             1.07005
Ar             2.36515            0.675341           0.0949151              4.6479            -10.2117             9.14766
Ar             1.49633            0.741736            0.819812            -4.65254             -3.2824             4.47165
Ar             2.35975             6.12628            0.759315             4.16903            -4.63997            -1.44482
Ar             1.49213             6.11956             1.53124            -5.08513            -5.54391            -1.10965
Ar             2.36512            0.745537             1.57874             4.60282            -2.71686             3.25487
Ar             1.53172            0.747856             2.31124             -1.2631            -2.39117           -0.529089
Ar             2.41104             6.13131             2.33277                9.12            -4.49851             1.54037
Ar             1.53931             6.14622             3.18923           -0.436927            -2.79613             9.57019
Ar              2.3649            0.819143             3.03069             4.58522             4.54514            -5.70082
Ar             1.56103             0.82603             3.94997             1.52015             5.15323             8.40789
Ar              2.3705           0.0778084             3.96333             4.90628             7.09402             9.95914
Ar             1.47131             6.16569             4.69014            -7.14528           -0.591934             5.38145
Ar             2.25144            0.866983             4.59904            -6.30355             9.20961            -3.31305
Ar             1.46476            0.727322             5.40146            -7.79252            -4.79415           -0.425352
Ar             2.23813           0.0404111             5.35103            -7.71374             3.44235            -5.41943
Ar             1.44785              1.4549             6.09396            -9.32279             -8.7517            -7.89162
Ar              2.2741             2.29258           0.0905097            -4.27125            -2.42576             8.67433
Ar             1.47974              2.2942            0.826894            -6.19464            -2.23775              5.2128
Ar             2.23806             1.44699             0.68598            -7.75928            -9.51154            -8.39535
Ar             1.44775             1.50587              1.4528            -8.86638            -3.52686             -8.6071
Ar              2.3251             2.37844             1.62152            0.695178             5.86481             7.42597
Ar             1.57539              2.2534              2.3672             3.03314            -6.09611             4.79064
Ar             2.25631             1.45969             2.32543            -5.95964            -8.19974            0.739834
Ar             1.55006             1.62609              3.0888            0.595753             7.87597            0.123085
Ar              2.3332             2.34029             3.13822             1.44105             2.29303              4.5795
Ar               1.449             2.36804             3.90671            -9.22455             4.80459             4.26567
Ar             2.40963             1.62266              3.8992              8.6511             7.26288             3.58158
Ar             1.60251             1.56197             4.54212             5.56116              1.8994            -8.90358
Ar             2.34906             2.41235             4.57747             3.10971             8.92444            -5.26243
Ar             1.49004               2.273             5.49356            -5.26463            -4.23898             8.46179
Ar             2.32859             1.63434             5.39102             1.00793             8.66316            -1.52768
Ar             1.51927             3.15688           0.0409133            -2.40657             6.39706             2.85681
Ar             2.32693               3.898          0.00299278             1.01379             3.49004           -0.393072
Ar             1.64166             3.85952             0.69896             9.38544            -0.27184            -7.09377
Ar             2.34735             2.99915             0.82811             2.86819            -8.77258             5.29073
Ar             1.59624             3.13612             1.47089             4.87514             4.49916            -7.21572
Ar             2.27191             3.80034             1.64079            -4.34497            -5.85802             9.30877
Ar             1.48868             3.85012             2.33624            -5.52933            -1.12659             1.86979
Ar              2.2666             3.09259             2.27274            -4.92429            0.246907            -4.18491
Ar             1.59008             3.13449             3.16807             4.42237             4.36919              7.6729
Ar              2.2858             3.85008             2.99434            -3.04392            -1.12336            -9.28229
Ar             1.46952             3.95993             3.81178              -7.209             9.45804            -4.88465
Ar             2.36553             2.99756             3.93564             4.68543            -8.68058             6.74572
Ar             1.59102             3.04923             4.55618             4.40855            -3.82079             -7.5535
Ar             2.30944             3.82137             4.55536           -0.816615            -3.86838            -7.75003
Ar             1.63326             3.80902             5.45662              8.5763            -5.10258             5.47898
Ar             2.28213             3.07914             5.34147            -3.40237            -1.07092            -6.42483
Ar             1.63724             4.72324           0.0709783             8.91995             8.69321             6.55265
Ar               2.353             5.43368             6.11332             3.38428             2.64435            -5.99236
Ar             1.54728             5.48708            0.846189            0.221603             7.67725              6.9904
Ar              2.2626              4.5841            0.752831            -5.18208            -4.79067             -1.6586
Ar             1.46104             4.73065             1.59169            -8.19022             9.07607             4.35644
Ar             2.23161             5.46107             1.46482            -8.15565             5.20764             -7.6647
Ar             1.53731             5.34689             2.21792           -0.723142            -5.58935            -9.36991
Ar             2.28928             4.68042             2.21606              -2.677             4.48652            -9.86818
Ar             1.53903              4.6925             3.07022           -0.578666             5.69734            -1.92909
Ar             2.38017             5.34309             3.15875             6.13307            -6.10092              6.5836
Ar             1.61295             5.46032              3.8294             6.65241             5.21453             -3.0465
Ar             2.31459             4.69442               3.818           -0.294948             5.68275            -4.13558
Ar             1.64503              4.6686             4.65364              9.7649             3.33007             1.81681
Ar             2.38841             5.41508             4.67586             6.82055             1.03355             4.04585
Ar             1.51001             5.35733             5.40238            -3.42302            -4.81075            -0.27377
Ar             2.33527             4.60344             5.37667             1.81803            -3.07159            -2.80703
Ar             3.10309             6.11747             6.17265             1.31536             -5.6825            0.117632
Ar             3.89634            0.753117           0.0249048              3.2797            -2.30494             1.64528
Ar             3.13494            0.698903            0.753767             4.42246            -7.31731            -1.82855
Ar             3.90582           0.0813924            0.777462             4.22923             7.36837            0.252945
Ar             3.15398             6.08774             1.57865              6.2282            -8.31596             3.23619
Ar             3.92906            0.736486             1.53326             6.51067            -3.39993            -1.16528
Ar              3.1157            0.808418             2.25614               2.625             3.33735            -5.82235
Ar             3.85792          0.00881133             2.24953           -0.385086            0.183078            -6.45067
Ar             3.07126           0.0986445             3.15961             -1.7064             9.31427             6.51701
Ar             3.88649            0.866022             3.13952             2.34052             9.08536             4.85896
Ar             3.01176            0.672897             3.80718            -7.36621            -9.15396            -5.05122
Ar             3.90619             6.17822             3.89324             4.24634           -0.411756             3.06775
Ar             3.11234           0.0975735             4.68262             2.11498             9.26865             4.66619
Ar             3.83388            0.689025             4.68609            -2.60229            -8.26675             4.98147
Ar             3.15379            0.695438             5.41806             6.16881             -8.0721             1.27639
Ar             3.81524             6.15719             5.49069            -4.50229            -1.32982             8.53345
Ar             3.08461             1.51756             0.05476            -0.53555            -2.66878             5.24889
Ar             3.78021              2.3551           0.0208367            -7.97955             3.66576             1.54688
Ar             3.01939             2.28177            0.813055            -6.85547            -3.52948             3.98676
Ar             3.79658             1.62137            0.758129            -6.33527             7.44761             -1.2776
Ar             3.03088             1.47183             1.61532            -5.71149            -6.96888             6.72029
Ar             3.78693             2.37713             1.54219            -7.33021             5.80295           -0.255812
Ar             3.03233             2.26781              2.2708            -5.55661            -4.83202            -4.43496
Ar             3.93606             1.48971             2.22191             6.97621            -5.20481            -9.20757
Ar             3.14157             1.50715             3.07512             5.06743            -3.64768            -1.48193
Ar             3.87668             2.38544             3.03667             1.43462             6.57874            -5.12772
Ar             2.99993             2.23448             3.76407            -8.21698            -7.76445            -9.51022
Ar             3.85844             1.55872             3.85497           -0.403652             1.40752           -0.561375
Ar             3.03035             1.51251             4.63088            -5.66997            -3.17324           -0.311383
Ar             3.80801             2.37219             4.62057            -5.30082             5.27914            -1.30431
Ar             3.04126             2.26112             5.38798            -4.66084            -5.36723            -1.80395
Ar             3.80205             1.56281             5.45943            -5.84701             1.78272             5.38472
Ar             3.02813             3.02481             6.15902            -6.04548            -6.34131            -1.35992
Ar             3.80901             3.84408            0.086842            -5.12445            -1.78182             8.19984
Ar             2.99282             3.85401            0.733842              -9.432           -0.765561            -3.70579
Ar             3.96023             3.01876             0.72167             9.50865            -6.76275            -4.94192
Ar             3.09667             3.11916             1.44508            0.761323             2.94923            -9.65444
Ar             3.94155             3.88419             1.50992             7.69815             2.07056            -3.43219
Ar             3.13297             3.84723             2.37467              4.1204            -1.42872             5.45712
Ar             3.80808             3.03066             2.33597            -5.24395            -5.72101             1.68925
Ar             3.18746             3.15251             3.15132             9.21762             5.91342             6.07267
Ar             3.81292             3.76337             3.01748            -4.43796            -9.39104            -6.93201
Ar             3.14706              3.9031             3.90737             5.58185             3.99608             4.38871
Ar             3.76882             3.04952             3.93538            -9.05457            -3.86786             7.15194
Ar             3.01844             3.15567             4.60829            -6.78786             6.45805             -2.4095
Ar             3.88519             3.85867             4.70357             2.21884           -0.258679              6.6798
Ar             3.13699             3.79874             5.50993             4.61568            -6.15875             10.5089
Ar             3.94716             3.14391             5.31641             8.28606             5.21727            -8.77005
Ar             3.13457             4.68987             6.11809             4.34758             5.40915            -5.36859
Ar             3.92774             5.47625             6.17704             6.33252             6.68211            -1.13263
Ar             3.08457             5.36155            0.709398           -0.546266              -4.405            -6.74932
Ar              3.7915             4.70211            0.707315            -6.84598              6.5107            -6.71683
Ar             3.07203              4.6983             1.49047            -1.71749             6.23977            -5.27146
Ar              3.9368             5.46455             1.45161             7.12394             6.40969            -8.92687
Ar             3.10093             5.41178             2.36111             1.14615            0.452338             4.30458
Ar             3.84462             4.60162             2.30744            -1.69284            -3.20816           -0.959357
Ar             3.02525              4.6045               3.125            -6.18112            -2.97626             3.43241
Ar             3.86445             5.42885             3.07273            0.142775              2.1654            -1.65899
Ar             3.00411             5.46123             3.94313            -8.20946             5.70479             7.88643
Ar             3.90282             4.55652             3.95097               4.013             -7.5986             8.65356
Ar             3.12104             4.63569             4.59206             2.99312            0.056865            -4.04972
Ar             3.80414             5.32656             4.66699            -5.61105            -7.80093             3.21772
Ar             2.99045             5.43611             5.41101            -9.52401             2.95349            0.320809
Ar             3.94007             4.63236              5.5082             7.51882           -0.181581             11.0182
Ar             4.55672             6.17356             6.16091            -7.38139            0.389178           -0.427726
Ar              5.3968            0.848465           0.0447323           -0.933217             7.45263             3.83591
Ar             4.60755            0.717884            0.681308            -2.53539            -5.52438            -9.19876
Ar             5.30834          0.00224785            0.859763            -9.63105          -0.0140528             8.48344
Ar             4.58393           0.0127685             1.59544            -4.78022            0.799042             5.00092
Ar             5.42156              0.6731             1.53835             1.27044            -9.39954           -0.561548
Ar             4.57796            0.850444             2.40611            -5.36499             7.53265              8.7307
Ar             5.44741             6.08606             2.41833             4.69756            -8.10415             9.82855
Ar             4.69083              6.0916             3.15211             5.47417            -8.06409             5.82239
Ar             5.36296            0.677259             3.13893            -4.21181            -9.92161             4.73113
Ar             4.65791            0.835086             3.79706             2.26171             6.11382             -6.2166
Ar             5.44249             6.13031             3.87945             3.75307            -4.10185             1.73487
Ar             4.62327             6.12723             4.68585            -1.10124            -4.98617             5.04291
Ar             5.46331            0.668784             4.66629             5.91584            -10.9219              3.0771
Ar             4.63027            0.867173             5.33741           -0.416023             9.22588            -6.67285
Ar             5.47126             6.14843             5.36008             7.04033            -2.36624            -4.25329
Ar             4.65758             1.53438             6.12364             2.21962           -0.947091            -5.04988
Ar             5.50121              2.2344             6.17893             9.04827            -7.86305          -0.0254098
Ar              4.6077             2.34858            0.809365            -2.51262             2.83739             3.65535
Ar             5.38692             1.49718            0.846944            -1.95232            -4.63727             7.37771
Ar             4.62725             1.54187             1.61271           -0.590103           -0.300085             6.43961
Ar             5.45909             2.33096             1.63251             5.06962             1.31061             8.40929
Ar             4.66702             2.33473             2.22046             3.09253             1.68052            -9.36923
Ar             5.38988             1.46961             2.28803            -1.67311            -7.35247            -2.84112
Ar             4.56493             1.57831             3.14864             -6.7616             3.38595             5.66264
Ar             5.33281             2.25405             3.06874            -7.24502            -6.17631            -2.05315
Ar             4.58207               2.352             3.83274            -5.15014             3.37249            -2.79459
Ar             5.35641             1.56075              3.7999            -4.88367             1.56939            -6.01895
Ar             4.69887              1.4678             4.64686             6.31363            -7.35461             1.08751
Ar             5.43467             2.29347             4.58932             2.75334            -2.33937            -4.38819
Ar             4.65109             2.36471             5.49981             1.53697             4.39608             8.91479
Ar              5.4628             1.55806             5.46165             5.49394             1.29057             5.44985
Ar             4.71225             3.04987             6.09087             7.37257            -3.77357             -8.3634
Ar             5.33665             3.78113             6.16842             -6.6434            -7.80679           -0.315151
Ar             4.73007             3.87261            0.740811             9.32807              1.0233            -3.70835
Ar             5.36662             3.01517            0.806023            -3.84855            -7.26801             3.18648
Ar             4.65224             3.03078             1.50004             1.72204            -5.63253            -4.26546
Ar             5.48018              3.8155              1.6074             7.58882            -4.54199             6.15311
Ar             4.67487             3.78811             2.40118             3.94451            -7.19129             8.17114
Ar              5.3727             3.02162             2.39408            -3.32856            -6.56115             7.44894
Ar             4.70482             3.06593             3.10487             6.60484            -2.33234             1.29394
Ar             5.47241             3.94749             3.07908             7.42074             8.25417            -1.01946
Ar              4.7002             3.78686             3.79985             6.31034             -7.2306            -6.02886
Ar             5.30728             3.06657             3.76268             -9.4413             -2.3289            -9.50866
Ar             4.61776             3.10433             4.59653            -1.52898              1.4304            -3.72161
Ar              5.4546             3.92084             4.59993             4.61401             5.63184            -3.32404
Ar             4.66506             3.91988             5.38025             3.04807             5.58064            -2.53998
Ar             5.38317             3.00476             5.48345            -1.87746            -8.24696              7.3715
Ar             4.57882             4.65932           0.0156237            -5.29148              2.4213            0.322116
Ar             5.49189             5.50315           0.0308926             8.01154             9.38477             2.57635
Ar             4.60405             5.32239            0.859167            -2.76564            -8.20441             8.30839
Ar             5.46666             4.69886            0.846377             6.14725              6.0683             7.21898
Ar             4.60665             4.56592             1.48471            -2.64639            -6.69099            -5.78811
Ar             5.36965             5.38383             1.55975            -3.69269            -2.08578             1.56066
Ar             4.64493             5.31249             2.37931            0.903644            -9.32034             5.94061
Ar              5.4812             4.57749             2.31787             7.52507            -5.44605         0.000526421
Ar             4.53923             4.59621             3.18039             -9.3143            -3.76474             8.84481
Ar               5.322             5.32125             3.02639            -8.12917            -8.55335             -6.0099
Ar             4.56624             5.48407              3.7689            -6.63293             7.51179            -8.74623
Ar             5.46872             4.60949             3.84226             6.46074            -2.33388            -2.02385
Ar             4.57757             4.60461             4.70483            -5.45539            -2.80998             6.80483
Ar             5.48362             5.37528             4.72398             8.04117            -3.06185             8.62848
Ar             4.69807             5.41858             5.47669             6.20717             1.14312             7.16301
Ar             5.42026             4.69273             5.48738             1.32575             5.67477             8.07107
