256
Position of argon atoms in fcc cell after one integration
Ar              1.1903             2.54274             6.04644        -2.9245e+012        1.95121e+012        3.82788e+012
Ar            0.256312            0.487721             1.85595       -1.82583e+013        7.81406e+012        3.87367e+012
Ar             2.12784             3.11269             3.28978       -3.70353e+013        1.11767e+013        4.05363e+013
Ar             1.19108             5.87413             2.82778        1.44185e+014       -8.10448e+012        5.93259e+014
Ar            0.129803             4.04993              4.1499        1.43681e+014       -2.14404e+013        1.98467e+014
Ar             4.56588             4.75214             5.27251        1.00599e+012       -7.95192e+012        1.37739e+013
Ar             3.77072              4.0231             2.62233        4.85605e+013        2.10905e+013       -3.23779e+013
Ar             5.63719             5.61808             2.57481        2.93784e+014        2.65743e+014       -4.21232e+013
Ar            0.954169             4.38867             1.78773        4.29282e+012       -4.40482e+012        2.24162e+012
Ar             3.51701              4.5615            0.730563       -3.44946e+011         2.9778e+012        2.20974e+012
Ar             4.78358             4.61133             4.57795        9.64375e+012        2.77487e+014        5.12564e+013
Ar             4.15284             3.13466             2.82016        3.27424e+013        9.86224e+013       -1.23823e+014
Ar             2.03944             5.74326             6.02144       -6.98997e+012        2.51229e+013       -3.29172e+013
Ar             4.07324             2.07132             2.08536       -9.54008e+013       -3.54896e+013       -1.36523e+014
Ar             3.49751             1.86842             3.62595        4.07403e+010       -2.16283e+012       -1.53481e+012
Ar             2.23448              4.3219             4.95654        2.29935e+012        4.41597e+012       -4.73372e+012
Ar             3.44611             1.43894             3.41142       -1.08915e+013       -5.50516e+012        6.40141e+012
Ar             2.80306              5.4381            0.258683       -9.05546e+013       -6.71848e+014        1.31624e+014
Ar             5.46228            0.671367             2.46872        2.90996e+013       -3.73407e+012        4.01391e+013
Ar             3.39352             0.98111             4.73234        3.43802e+012       -4.38047e+012       -2.09956e+012
Ar             2.37908             5.75045             3.02313        2.24742e+013        -1.4706e+012        8.27357e+012
Ar             6.09048              5.8501             2.77767        -4.1674e+012        5.46859e+012        2.74305e+012
Ar             1.68722            0.647556            0.910523         4.6809e+013        5.49578e+014       -1.01729e+014
Ar              5.5652             5.62247             2.81097        1.84627e+014       -1.02775e+014       -1.14519e+014
Ar            0.302729             3.66311            0.421802       -2.32547e+012       -1.16066e+012       -4.96557e+012
Ar             5.65025             1.25777             2.63515        8.29224e+012       -2.39561e+013        3.35459e+013
Ar             4.48032              4.9152            0.364042        1.90391e+012        6.33109e+012        1.95263e+011
Ar             4.17407             6.01818             4.07432       -1.60904e+014        4.18949e+013       -1.24992e+014
Ar              3.5709             4.81453             5.05225        2.37548e+012         3.6214e+012        1.48802e+012
Ar            0.603622             5.48668              0.3382       -1.13775e+013       -1.63946e+012        1.44923e+013
Ar            0.227027            0.285619             3.61671        6.55103e+013        8.02621e+013       -4.41147e+013
Ar             4.94093             0.21805             6.11651        1.06158e+013       -8.37811e+012        1.22585e+012
Ar            0.868596             3.51186             2.80088        1.07109e+014        -8.0826e+012        1.09658e+014
Ar             2.50501           0.0854397             5.30213       -1.82003e+013         8.9754e+012        5.91305e+012
Ar             2.19284             2.87407             4.92374        1.98334e+012        6.29482e+012       -2.56959e+012
Ar             2.65736             2.24756            0.785197       -9.93775e+012       -3.81852e+013       -2.32758e+013
Ar             4.89834            0.623734             4.73203         1.9243e+014        3.72896e+014       -3.53642e+013
Ar             2.71833             0.52481              5.4184        1.82692e+014        3.39933e+014        1.65914e+014
Ar              1.7394              2.3223             3.28119       -4.29683e+013       -2.15129e+014        7.21118e+012
Ar             3.15158             5.27589              2.0847        3.90332e+012         3.5543e+013        3.22694e+013
Ar             4.95725             1.36761             4.32425        2.83158e+012       -3.62314e+012       -1.93971e+013
Ar             4.12049             5.25099            0.640024         2.7402e+014        7.73949e+013        1.43554e+014
Ar             4.33015             3.75322              5.2636       -2.41903e+014        3.01943e+014        -3.2509e+014
Ar            0.232383            0.512767             4.32766       -2.44752e+014       -2.78271e+014       -3.49434e+014
Ar            0.943298             2.10614             1.47905        2.78235e+014        3.28862e+013        2.63793e+014
Ar             4.39077             5.73518           0.0645619        2.80019e+012       -5.11347e+012       -5.99246e+012
Ar             1.54548             5.97569             1.53562       -1.99367e+013        1.25853e+013        1.34822e+013
Ar             3.97725             1.08366            0.699531        3.44452e+014         6.3975e+014       -1.95127e+014
Ar            0.336153            0.936851              3.5598        8.58401e+012       -1.58869e+012       -2.35641e+012
Ar             2.92026              4.6096              6.0812        8.82806e+012        5.37198e+013        9.77456e+012
Ar             5.17964            0.426343             5.38506        -2.3957e+013        2.97013e+012       -1.37633e+014
Ar             5.58621             0.69416             2.44983         2.1371e+013        4.20484e+012       -1.94386e+015
Ar               2.163             6.01514             3.86642       -1.94649e+014       -2.24093e+014       -5.67845e+013
Ar             3.78752             5.81828             5.51726        -1.4969e+014       -1.07137e+014       -8.00417e+013
Ar             1.29552             1.08166             4.29544        5.65278e+013       -2.19143e+013       -7.44352e+013
Ar            0.596491             5.45529            0.892519        6.81931e+011        4.52746e+012       -1.69594e+011
Ar             2.65082             2.25951             1.48665        8.98825e+013         4.6003e+013       -6.68299e+013
Ar             0.90659             5.47524             1.93159        -1.2399e+013       -6.64631e+013        2.38944e+013
Ar             0.96878             1.16224             1.66494       -3.19782e+012        5.27954e+011       -1.53746e+011
Ar             1.81213             6.09339              4.1873        3.02718e+013       -1.80552e+013       -4.27102e+012
Ar             4.18291             3.27466             1.77916        3.09667e+013       -9.24101e+013        3.84793e+012
Ar            0.436602           0.0867808             4.13537        5.33384e+012       -4.68051e+013       -4.21031e+013
Ar             3.45257             3.90478             4.66663        1.12408e+014        1.15249e+014       -2.95452e+013
Ar             5.35411             4.95913            0.290846        6.94882e+013       -5.75731e+013       -3.56299e+013
Ar             4.02348             5.33038             2.87919       -6.00358e+012       -4.60961e+012        2.34545e+012
Ar             5.42116           0.0943697            0.158043       -2.87522e+013       -1.69726e+013       -4.67863e+013
Ar              6.1118             5.08382             5.76926        2.07239e+014       -1.64771e+014       -3.93221e+014
Ar            0.286329             1.98123             5.94433         8.0446e+012        1.50555e+013        6.41268e+012
Ar            0.490528             2.62591             1.02162       -3.14932e+013        5.10485e+013        2.86928e+014
Ar           0.0846959            0.971196             5.77028       -1.87991e+013        1.54171e+013        9.96811e+010
Ar            0.714342             4.00874             1.36715       -1.50183e+013       -8.04065e+012       -5.75352e+012
Ar              3.5594             2.07084             4.72884       -3.03037e+014       -3.14115e+014        1.74799e+014
Ar             5.45675             2.82407             4.25618        3.20773e+013        2.65562e+013       -1.12938e+013
Ar             2.36516             4.39339             1.56831       -1.11661e+013       -2.90673e+013        2.43478e+013
Ar             1.14338             2.85362              4.0693        -5.7647e+013       -3.64476e+013       -3.30442e+013
Ar            0.783931             5.12642            0.514158        1.00941e+017       -2.95684e+014       -3.33031e+014
Ar              4.5813           0.0672724             1.50851       -3.45705e+014         6.6627e+012        1.05411e+014
Ar             1.78502             1.79746             0.53642        1.16765e+013        2.21855e+012       -1.60683e+012
Ar             5.33172             0.95865             6.11771        3.56745e+011       -1.15983e+013       -4.35727e+013
Ar             3.06832             5.82132              4.0229        8.13871e+011        1.85508e+011        3.45623e+012
Ar             5.62076             6.14916             1.66396        1.54852e+014       -5.25648e+014       -4.79932e+014
Ar             5.74406             4.66641            0.713359        1.80233e+013        1.11605e+013        -7.8284e+013
Ar             4.82946            0.228252             5.69027       -7.13791e+011       -2.59152e+011        -6.9721e+011
Ar              5.3487             5.64992            0.396211        9.50824e+012       -1.01836e+013       -3.32274e+012
Ar             2.15746             3.17572             3.49097       -1.32483e+011       -6.19374e+010       -1.83415e+011
Ar             4.40051             3.04653             3.77897        3.37347e+013         2.1923e+014         -1.692e+014
Ar             3.08932             1.06959             1.51821        3.64364e+012        1.01748e+012        5.41815e+012
Ar             2.64868             3.95159             3.84352        -6.4191e+012        4.34712e+012       -3.53186e+012
Ar             2.16702             1.68971             3.55187        1.06401e+012       -1.23406e+012        3.18454e+012
Ar             4.61494             4.03531             5.10596       -8.02431e+012        4.77291e+012       -2.09783e+011
Ar             6.16921             5.17982             0.55804        -4.4445e+013       -1.03344e+016       -1.29536e+013
Ar             4.50513             0.72893           0.0866069        5.07959e+012       -3.19059e+012        5.44713e+012
Ar             3.04677             5.18419             4.75122        1.46709e+013        8.28161e+012       -3.60333e+012
Ar           0.0336492             4.81428             1.75245        2.19411e+013        3.26155e+012        -1.3014e+013
Ar             3.26622             2.47097              5.0105        1.77456e+013        6.88788e+013       -8.14429e+013
Ar             2.42507             2.96452             2.26532       -2.59432e+013        5.09858e+012       -8.13446e+012
Ar            0.723444             4.42348             2.68377        2.23515e+014        -7.0939e+013        3.80931e+013
Ar             5.17641              4.3559             6.07059       -6.59151e+012       -8.33942e+012       -3.75102e+012
Ar           0.0966521             5.84109            0.773266        5.61623e+013        1.17825e+014        8.33993e+013
Ar             4.59666              1.1917              6.0708       -2.42648e+012        6.21691e+011       -2.19615e+012
Ar             4.68872             1.17137             3.23803        7.68673e+012       -1.88604e+013        2.70742e+013
Ar             2.52792             2.89992             2.93461        4.94443e+012        1.59508e+011        5.27772e+011
Ar             4.04138              2.5022              2.4617        1.60729e+013       -2.25751e+015        1.88116e+013
Ar             2.79199             2.37754             2.90203       -7.28133e+016       -7.27299e+014        2.52431e+014
Ar             2.05841             2.37528             4.96033       -6.55423e+012         1.1505e+012        1.21094e+013
Ar             5.41792             5.53253            0.368513       -2.20441e+013        7.24152e+012       -7.10733e+013
Ar             4.27328             1.67178             5.87944       -6.56131e+011        3.29322e+013       -3.14445e+013
Ar            0.133259             5.59262             4.01765        1.59137e+013        3.19036e+012       -5.71682e+012
Ar             4.32993             2.54232             1.51704       -2.99218e+013        4.83344e+012       -6.52975e+013
Ar             1.44353            0.773426             1.58567        3.81624e+013        -5.6721e+013        3.74336e+012
Ar            0.811164            0.881267              2.6739       -4.43033e+011        1.72808e+011        2.98655e+011
Ar             2.08332             2.40686             2.01115       -1.50028e+013        -2.6754e+014       -6.54754e+013
Ar             2.70326             5.31282             4.16376        1.10944e+014        -2.1536e+013       -6.25899e+013
Ar             5.11835             3.99304             4.59761        1.40331e+013        3.19433e+013        2.12398e+013
Ar             4.25692            0.369579             4.30401       -3.02457e+014        4.28278e+013       -6.92381e+013
Ar             5.60028             5.29857             4.69224       -3.15525e+010        1.64281e+010       -1.19881e+011
Ar             4.94526             2.14631            0.906937       -1.14076e+014       -9.72141e+013        3.51449e+013
Ar             3.24251             5.32535             4.38138         1.8495e+013         1.2668e+012       -2.17575e+012
Ar             2.96159             1.18132             4.79421        -4.9626e+011       -5.68269e+012        8.07014e+011
Ar             4.50592             1.35954            0.359078       -5.50984e+013        6.03877e+013       -4.67068e+013
Ar             1.28789             1.99204             3.06276         2.9601e+012       -1.12619e+012        3.47807e+010
Ar             5.45945             1.53424             3.97606       -6.70123e+013        7.89911e+013        4.83914e+013
Ar             1.60428             5.64212             3.83606       -4.87778e+013        2.24678e+013       -3.67083e+012
Ar             1.04751            0.922566             1.77682          9.016e+012       -2.39879e+012        9.82426e+011
Ar              1.1155             5.25657             5.76517        7.04035e+012       -1.91394e+013        -1.0121e+013
Ar             3.07778             5.51899             5.22138       -1.40779e+012       -7.29196e+011        6.16471e+011
Ar             5.62778             4.11903              3.0777       -2.55607e+012       -9.66268e+012       -1.26369e+013
Ar             1.35789             2.99094             5.72824        4.80291e+013        2.85563e+012        -2.6402e+013
Ar             3.70921             2.42923            0.682535       -1.54424e+013       -8.41864e+013        4.43424e+011
Ar             4.75176             3.65913            0.883384        1.37202e+014        -8.8823e+013       -4.96787e+012
Ar             5.82548              6.0976             3.55036       -1.09963e+013       -6.72704e+013       -2.89376e+013
Ar             4.30416            0.365136             1.82793        2.16721e+013       -4.49892e+014       -5.56473e+014
Ar             5.59557             3.00712             2.32207       -7.16892e+013       -9.58448e+013       -2.95823e+013
Ar             3.52125             4.67809             1.96973       -1.70911e+012       -2.05062e+012        2.71922e+012
Ar             3.65011             6.04971           0.0907848        2.01418e+012       -1.46038e+012        1.00415e+012
Ar             1.35056             1.46963             3.87771        9.09268e+011        1.44646e+012       -2.36615e+012
Ar            0.721079             1.39273             5.60321        9.93906e+013         8.7089e+013        1.10696e+014
Ar             1.94503             1.99504            0.167986       -2.39003e+012       -1.67094e+012       -3.95919e+011
Ar             5.21458             1.88501             4.17482       -8.26659e+012        1.78067e+013        6.45037e+013
Ar             2.03429             2.27368             4.99335       -1.55405e+014        1.42855e+014        1.01013e+014
Ar             2.28817            0.853335              1.7858       -3.66645e+013        1.56968e+014         3.5994e+013
Ar             1.01307             5.72507            0.806325       -2.05875e+013        4.58925e+012        2.74421e+013
Ar             5.50743               4.384             3.49947        1.34637e+012       -4.28669e+012        2.96226e+012
Ar             5.79298             3.24683             1.90336       -1.29955e+013       -3.83922e+013        1.83542e+012
Ar             4.08455             2.39267            0.536268        2.10207e+014       -4.23355e+013         2.4126e+013
Ar             2.33193             4.70725             1.51363        1.82605e+011       -4.19658e+013        1.88477e+011
Ar             4.26023             3.80992             2.96577        8.21873e+015        2.14209e+013        4.11998e+013
Ar              4.8877             4.96327             2.90361       -5.07956e+012       -1.61468e+011       -1.47761e+012
Ar             5.92744             3.37644               2.895       -1.82274e+013        1.44618e+013        3.75285e+012
Ar              2.2604             1.28545             5.79905       -8.07869e+011        6.02025e+012       -7.35304e+012
Ar             2.02367             2.10911             4.81592        3.27923e+013       -2.08845e+013        3.29413e+013
Ar             5.42158             5.39817             5.25295        -1.0875e+013       -1.35326e+012       -9.63081e+012
Ar             1.03353              2.9596            0.137862        -4.9761e+013        2.82191e+013         2.8986e+013
Ar             4.78754             3.81254             3.78453        -2.9417e+014       -1.12451e+014        1.15091e+014
Ar             5.13978             4.73724             4.00584       -1.92704e+013       -8.62616e+011        9.99395e+012
Ar            0.575121             1.57396             2.83529        2.79273e+014        2.81467e+014        3.29815e+014
Ar             1.30427             0.44316              1.5315        8.05062e+013         1.6329e+014       -3.22381e+014
Ar             4.38549             4.60147             2.89984       -7.22037e+012       -4.51418e+011       -8.38334e+012
Ar             5.71773             5.26458             5.14734        2.46814e+012       -3.42012e+013        2.55124e+013
Ar             1.18893             2.46544             2.06612        -6.7321e+013       -8.99506e+013        4.79575e+013
Ar             4.11705             6.01165             2.24232       -1.52689e+014           5.65e+014        4.68389e+014
Ar             5.88304             1.88715              3.3961        5.98634e+013       -1.18488e+013       -2.79352e+013
Ar             4.22931             4.37581             5.38482        3.82332e+014       -6.35343e+013        -2.5414e+014
Ar             5.73894             3.89711             3.76695       -2.26305e+013        1.16093e+013        7.06598e+013
Ar             2.53827             2.25318            0.325749       -6.81253e+014       -2.10956e+014        4.29306e+012
Ar             1.92738             4.99059              2.8703        8.17129e+011       -4.52237e+013        1.29073e+014
Ar             5.15933             5.40471             0.72291        1.14135e+011       -1.00194e+011        3.86133e+011
Ar            0.625156             1.03989             2.02605        1.90978e+012        1.08692e+012        1.89058e+012
Ar             6.01146             1.38417             2.75244       -3.63093e+013        7.48458e+012        8.14109e+013
Ar             3.55917             1.37086             3.42782       -1.45641e+013        5.65105e+012       -4.28571e+013
Ar             3.50659             1.41092            0.467445        4.67137e+012        7.97925e+011        -8.2945e+012
Ar             1.74942             5.07824             2.52822       -1.55992e+014        1.03513e+014        5.86004e+013
Ar             3.70823             2.52911             4.74364       -4.79992e+013       -4.05912e+012        2.45201e+013
Ar             2.58381             4.87348             3.44084       -3.56198e+013       -5.99823e+014        2.11769e+014
Ar             2.52116             4.80754             2.52289        3.06802e+013       -9.61214e+013       -1.80789e+014
Ar            0.477783             2.57466            0.207603       -1.24799e+013       -2.32429e+013        3.83204e+013
Ar            0.680145             2.30351            0.369344       -2.56404e+014        6.47039e+014        3.68494e+014
Ar             5.67295             5.84249           0.0904703       -2.43394e+012       -2.40933e+012       -4.55336e+012
Ar             4.64076             1.21455             3.85915        9.10693e+013        2.08035e+013        1.07583e+014
Ar             5.62286             5.28234             2.10867        1.76619e+013       -9.45762e+011       -9.30128e+012
Ar             1.93715             5.27909             3.74035       -1.96897e+013        -5.0539e+012        5.96415e+012
Ar             2.08276             1.67421              4.7175        7.94961e+013        5.67932e+013        5.29592e+013
Ar              4.7864            0.465715             6.13404       -3.31962e+012        2.52121e+012        6.45133e+012
Ar             1.19109            0.389272             3.06656        1.83578e+012        1.79126e+012       -1.94842e+012
Ar             2.81488             5.12077             4.18775        2.46939e+014       -1.82296e+014        9.20414e+013
Ar            0.576476             1.22924             4.19802        1.53562e+013       -1.25902e+013       -4.99164e+012
Ar             1.31394            0.962351             1.18941         1.2936e+013       -6.82494e+013        5.54669e+013
Ar             2.92809             5.63586             5.94952        -5.7368e+013       -1.14467e+013        6.97319e+013
Ar             5.82273             1.65571             4.56672       -7.28416e+012       -1.92526e+013       -1.47889e+013
Ar             3.22605             5.31574             1.95634        4.20018e+013       -4.65092e+013       -3.12942e+013
Ar             5.17389            0.355577             4.00474       -4.13902e+012       -7.02992e+012       -4.07925e+012
Ar             2.31944             4.74486             2.92784       -1.38771e+014       -9.01331e+013        6.44204e+013
Ar             4.41474             1.78341             4.82624        4.02602e+013        7.22999e+013       -2.14597e+014
Ar             1.91213             4.20662             6.08504        6.97068e+012       -1.50437e+012        1.69256e+013
Ar             6.03224             2.46926             6.07059       -1.30853e+014        -2.1135e+014        5.54653e+013
Ar             5.26955             3.40185             6.17051       -7.07024e+013       -1.81764e+014       -3.55893e+014
Ar             5.38865             2.15561             5.14695        5.71707e+013        1.59521e+014        2.19802e+015
Ar            0.640902              5.5278             5.89272        2.90635e+014       -1.08909e+014       -7.89759e+013
Ar             1.71039             2.58347             5.82246        4.65427e+014         6.1622e+014        5.31455e+014
Ar             4.13649              3.1423            0.624409       -3.24095e+014       -6.42407e+014        1.98129e+014
Ar             1.74994             1.14637             2.45905          7.304e+016        3.71261e+014       -3.82868e+013
Ar             1.35308            0.163944             4.20799       -1.21519e+013        2.08351e+013       -3.69131e+012
Ar             2.63364             5.06435             0.42972       -8.50954e+013        1.86789e+014       -6.05376e+013
Ar             2.07638             5.63787             1.56033       -2.53838e+014        5.56704e+013       -7.51271e+012
Ar             5.64212             2.84028             2.44363       -2.56989e+013        -5.0266e+013       -9.81799e+012
Ar            0.305424            0.341557              4.9971        4.00957e+013        1.28121e+012       -7.75464e+013
Ar             3.55356             4.84445             3.76866        -1.3405e+013       -1.30445e+013        2.35046e+013
Ar             2.61126             6.11104             4.65623       -2.19173e+013        1.57158e+014       -2.41765e+014
Ar             3.04242            0.346359             4.71167        8.66484e+012       -3.24442e+012        5.09438e+012
Ar             4.03952             3.80609             4.83887       -5.54244e+013        2.46307e+013        8.05573e+013
Ar             4.71127            0.117959             2.63535       -4.84979e+013       -3.70034e+012       -3.01429e+013
Ar             4.83252             6.13653             1.72627       -7.94733e+013        1.34053e+014        2.19639e+014
Ar             5.09688             5.78185              5.3437        3.69985e+013        3.94501e+013       -5.80666e+012
Ar             2.36654             5.19807             5.16208       -8.21932e+015       -1.93871e+013       -4.20668e+013
Ar             1.10205             4.29442             6.06079       -2.84771e+013       -4.95065e+012        3.66406e+013
Ar            0.438174            0.815936             1.89805       -2.74705e+013       -5.90468e+013        6.33982e+013
Ar             3.65463             4.40658             2.23389       -2.92768e+013       -4.07679e+013       -3.77108e+013
Ar            0.765453             1.58731             5.70001       -1.14464e+011       -3.22425e+011       -5.14322e+011
Ar             2.01125             3.79606             4.82805        8.98633e+013        6.57418e+014          -1.66e+014
Ar             3.50295             4.67167             4.89714       -3.01662e+013         2.5475e+013       -1.07912e+014
Ar             3.74092             3.36892             2.59917       -1.76537e+014        4.01031e+013       -6.15523e+014
Ar            0.983439            0.373916             2.24884        -1.9968e+014       -3.78659e+014       -1.60419e+014
Ar             5.48461             5.41348            0.935801        9.76583e+013        1.83532e+014          2.743e+013
Ar             1.49328            0.683615             5.43874        2.41793e+014       -2.86104e+014       -7.89404e+013
Ar             3.39723             4.00416             5.32197        1.07002e+013        9.95519e+013        9.87414e+013
Ar             4.13068             1.81481             2.37383       -1.62556e+013        -6.1673e+013        8.32389e+013
Ar             5.68441            0.755343             3.01585       -9.04109e+013        1.74335e+014        2.38566e+013
Ar             6.13799             1.40829              2.5072        6.10023e+013       -6.88259e+013        1.34206e+014
Ar            0.804229             2.66695              5.4031        4.03214e+014       -2.68775e+014       -2.48215e+014
Ar             5.34377             1.45894             4.20561       -4.28861e+013       -2.17735e+014       -4.54458e+014
Ar             1.73981             5.75693             5.94342       -1.17281e+014       -2.20486e+013       -6.84309e+013
Ar             1.12478             1.64502            0.732534        5.02353e+013       -1.16061e+014        1.17694e+013
Ar              4.4489             4.59109            0.452924       -1.66782e+012        1.40931e+011       -1.28979e+012
Ar             5.93981             4.47607             4.74212       -2.47309e+013        1.03318e+016        5.92707e+013
Ar             2.07513             6.06686             5.64507       -6.12988e+012        3.05845e+013        1.50045e+013
Ar            0.845626             1.44786             5.80439        -3.7532e+014        1.99356e+014        2.36285e+014
Ar             3.06576            0.855748             2.67017       -3.91176e+014       -4.29983e+014       -4.76959e+013
Ar             5.02993            0.485846             4.64497        3.43362e+013       -2.32186e+013         2.4045e+013
Ar            0.789087             5.44759            0.647971       -4.28621e+009        1.37437e+011       -2.48729e+011
Ar             4.93083             5.68474             2.67261       -1.08875e+012       -6.41831e+011        2.58252e+010
Ar             5.97081             1.57999             4.33919        8.05034e+013        -4.6791e+013        1.64076e+014
Ar             1.25667             6.17527             5.47471        8.89772e+012       -3.22993e+012        1.18078e+013
Ar            0.105987              5.0706             3.94006       -3.93444e+013        3.16219e+013        5.50041e+012
Ar              1.4399             1.39363             2.11888          4.225e+012        6.73576e+012        1.55479e+013
Ar             4.62458             5.11204            0.208497        3.20611e+012       -5.89146e+011       -9.56476e+012
Ar             4.57186             1.90409             1.93101       -1.84893e+013       -2.92078e+013       -8.50374e+013
Ar             5.15991             1.35616             2.87885       -3.62575e+012        7.64714e+011       -6.27135e+012
Ar             2.52902             5.53778             3.90923        1.91619e+012        9.60453e+012        1.20102e+012
Ar             5.49621             5.31894             1.52412       -1.97052e+014        7.67205e+013        3.38849e+014
Ar             3.61672             2.30181             1.65507       -7.72491e+013       -5.60766e+013       -2.73595e+013
Ar             1.60511              1.7936              2.7299        1.48217e+013        2.77517e+013        3.00395e+013
Ar            0.245375             5.92313              6.1704        7.94111e+013        2.53866e+014        4.85496e+014
Ar             5.12345             3.24032             2.66318         3.5007e+012        2.23563e+015       -1.16687e+013
Ar             3.37547             5.59014              1.3282        4.96823e+013        1.39105e+013       -3.42178e+013
Ar             4.73162             4.08173             5.85254        1.18051e+014         2.6762e+014       -1.87507e+014
Ar             1.98779            0.646089             4.20935       -1.00861e+017        2.72804e+014        2.64233e+014
