256
Position of argon atoms in fcc cell after one integration
Ar             6.16061             6.17731             6.16216             -8.1943           -0.927855            -7.48119
Ar            0.757304            0.758489             6.16303             -6.6101            -6.09167            -7.12294
Ar            0.020731            0.761439            0.755816             9.04467            -4.80841            -7.27889
Ar            0.750873            0.011119            0.759455            -9.40886             4.83788             -5.6816
Ar            0.016084          0.00275911             1.54336             7.03186             1.20968           -0.615077
Ar            0.772951            0.769358             1.53892            0.254526            -1.32199              -2.556
Ar             6.16172            0.783008             2.33563            -7.68709             4.64722             8.06837
Ar            0.787578          0.00135636             2.33049             6.63537            0.594835             5.81713
Ar              6.1665             6.16559             3.07706            -5.59383            -5.95587            -5.46797
Ar            0.777182             0.78896             3.07084             2.07313             7.24879            -8.18357
Ar           0.0157801             0.75051             3.88419             6.89525            -9.56189             9.71564
Ar             0.75794             6.16513             3.86035            -6.32386            -6.13605           -0.706682
Ar          0.00351423             6.17848             4.63488              1.5486           -0.319047            0.232791
Ar            0.754915            0.774752             4.64882            -7.63317             1.01353             6.32787
Ar          0.00344316            0.759752             5.41098             1.47243            -5.55856             1.84326
Ar            0.776313             6.15781             5.38773             1.71696            -9.37208            -8.32836
Ar             6.17554             1.52314          0.00436888            -1.60335            -9.45135             1.91825
Ar            0.764288             2.32721          0.00430275            -3.54774             4.37864             1.89261
Ar          0.00562213             2.30111            0.778693             2.44567            -7.02839             2.76084
Ar            0.788708             1.55664             0.76157             7.12635             5.17896            -4.73251
Ar           0.0184438              1.5631             1.55783             8.05358             8.00275             5.70279
Ar            0.779274             2.33164             1.55968             3.01617             6.32298             6.51132
Ar             6.17187               2.326             2.33646            -3.24416             3.85622             8.42771
Ar            0.763405             1.55964             2.33281            -3.94504             6.49225             6.83758
Ar          0.00218809             1.52226             3.09756            0.916127            -9.83032               3.494
Ar            0.781372             2.29989             3.06707             3.91584            -7.55233            -9.82862
Ar             6.16906              2.2956             3.87509            -4.49137            -9.43267             5.73938
Ar            0.783908             1.52531             3.86029             5.03189            -8.50283           -0.725367
Ar          0.00110554             1.53664             4.61768            0.448925             -3.5524            -7.28275
Ar            0.767148              2.2963             4.61779            -2.30596             -9.1219            -7.23695
Ar             6.15687             2.29734             5.42443            -9.77477            -8.67173             7.72552
Ar            0.765867             1.53366             5.42698            -2.85483            -4.85365             8.82246
Ar           0.0115868             3.09428             6.15926             5.04809             2.06489            -8.71938
Ar            0.790237              3.8531           0.0205447             7.80063             -3.8712             8.96743
Ar           0.0161473             3.87858            0.783084             7.05833              7.2612             4.67396
Ar             0.79439             3.07929             0.77736             9.62109            -4.49145             2.17247
Ar             6.17241             3.08558              1.5225             -2.9623            -1.74712            -9.74207
Ar            0.782151             3.85189             1.54523             4.26187            -4.40416            0.199239
Ar             6.16263             3.84036             2.33859            -7.26071            -9.44693             9.36882
Ar             0.75972             3.10397             2.31614            -5.57598             6.28967           -0.450321
Ar             6.17787             3.09181             3.07293           -0.575204            0.976267            -7.26567
Ar             0.77601             3.87513             3.07453             1.56109             5.75815            -6.57404
Ar             6.16662             3.87725             3.88442            -5.57303             6.68283             9.81967
Ar            0.781498             3.09417             3.84565             3.96506             2.00842             -7.1243
Ar           0.0150042             3.09397             4.62256             6.52173              1.9258            -5.14766
Ar            0.768436             3.84756              4.6219            -1.74502            -6.28688            -5.43888
Ar           0.0168929             3.85218             5.42568              7.3919            -4.26974             8.26389
Ar            0.792906             3.08152             5.40379              8.9764            -3.52375            -1.29287
Ar             6.16842             4.62026           0.0153215            -4.71552            -6.15817             6.70503
Ar            0.759455             5.41902              6.1636            -5.66564              5.3352            -6.82635
Ar           0.0107639             5.38792            0.794011             4.69309            -8.23776             9.44387
Ar            0.764662             4.64648            0.781487            -3.38241             5.29683             3.97267
Ar          0.00748392             4.65345             1.55009             3.27863             8.34444             2.32969
Ar            0.763601             5.40874             1.53624            -3.82949            0.852086            -3.72454
Ar          0.00346529               5.428              2.3328             1.47908             9.27375             6.82342
Ar            0.762238             4.65297             2.31898            -4.43225             8.13578            0.791092
Ar              6.1639             4.61696             3.08043             -6.6769            -7.59978            -3.99227
Ar            0.788677             5.39415             3.07067             7.11566            -5.50546            -8.25351
Ar             6.16138              5.4223             3.86162            -7.79248             6.78618           -0.150593
Ar             0.76207             4.62303             3.88069            -4.53973            -4.94528             8.18365
Ar             0.01054             4.63054             4.62995             4.56434            -1.66372            -1.91761
Ar            0.772261             5.41799              4.6568          -0.0525305             4.88512              9.8079
Ar              6.1788             5.38595             5.41348           -0.172776            -9.10342             2.92486
Ar            0.766443             4.62354               5.394            -2.60835            -4.72892            -5.57544
Ar             1.53285          0.00675597           0.0105901            -5.20254             2.93096             4.58756
Ar             2.32743             0.75778             6.17078             4.47615            -6.38505            -3.72218
Ar             1.56155            0.765902            0.765432             7.33453             -2.8343            -3.05546
Ar             2.30208           0.0121432            0.773237            -6.59015             5.30274            0.360104
Ar              1.5263          0.00405342             1.52531            -8.06976             1.75113            -8.50266
Ar             2.32831            0.769861              1.5288             4.87142            -1.10208            -6.97673
Ar             1.52435            0.792243             2.30636            -8.91338             8.67876            -4.72881
Ar             2.31721          0.00303756             2.29827           0.0143281             1.32576            -8.26448
Ar             1.53895             6.16549             3.10626            -2.53724            -6.00043             7.29468
Ar             2.32401            0.751647             3.11048             2.98518             -9.0756              9.1411
Ar              1.5581            0.761295             3.87653              5.8247            -4.87217             6.37133
Ar             2.32563           0.0180213             3.87516             3.69826             7.86286              5.7693
Ar             1.56463          0.00388266             4.65305             8.67836             1.67249             8.17206
Ar             2.32656            0.793765             4.64183             4.10494             9.34965             3.27158
Ar             1.54181            0.757413             5.40908            -1.29646            -6.55538             1.00505
Ar             2.33314           0.0139004             5.38986             6.98072             6.07088            -7.38135
Ar             1.55466             1.53138           0.0105443             4.32401            -5.85034             4.56125
Ar             2.32077             2.30618             6.16362              1.5699            -4.80548            -6.81294
Ar             1.54565             2.32393            0.762023            0.388357             2.94785            -4.53639
Ar             2.29942             1.54772            0.782883            -7.75144             1.28691             4.57783
Ar             1.56166             1.53789             1.55117             7.37048            -3.00664             2.79148
Ar             2.32277              2.3073             1.52602             2.45157            -4.31293            -8.19427
Ar             1.52939              2.3377             2.33687            -6.70786             8.96919             8.60555
Ar             2.33212             1.54446             2.33679              6.5356           -0.142855             8.57404
Ar             1.53105             1.56474             3.08715            -5.98995             8.72191            -1.05012
Ar             2.31926             2.31508             3.10459            0.911631           -0.911853             6.57003
Ar              1.5555             2.32658             3.85495             4.68902             4.11168            -3.06028
Ar             2.32536             1.52835             3.85254             3.58263            -7.18151            -4.11606
Ar             1.53199             1.54985             4.63568            -5.58117              2.2172            0.585126
Ar             2.31253             2.29532             4.63803            -2.02379            -9.54989             1.60961
Ar             1.53175             2.33007             5.41879            -5.68909             5.63144             5.26115
Ar             2.30648             1.52888              5.3907            -4.66468            -6.95031            -7.01021
Ar             1.55796             3.11057             6.16567             5.76301             9.18351            -5.93527
Ar             2.32352              3.8558          0.00214069             2.77218            -2.69113            0.921718
Ar             1.56047             3.88046            0.772575             6.86346             8.08426           0.0738251
Ar             2.30704             3.09576            0.776022            -4.42156             2.70668             1.57189
Ar             1.53128             3.10927             1.53883            -5.88617              8.6055             -2.5905
Ar             2.32301             3.84521              1.5382             2.55732            -7.31717            -2.87349
Ar             1.54329             3.84727             2.33869           -0.640165            -6.42306             9.40385
Ar             2.31252             3.07233             2.32007             -2.0304            -7.53552             1.26533
Ar             1.55155             3.08036             3.09697             2.95969            -4.01547             3.23523
Ar             2.31857             3.86577             3.11209            0.611618             1.66292             9.84638
Ar             1.55317             3.85048             3.85324             3.67063            -5.01521            -3.80601
Ar             2.33893             3.06925             3.88178             9.51226            -8.87457             8.66674
Ar             1.56546             3.08203             4.62096             9.03613            -3.28789            -5.84369
Ar             2.32239             3.85024             4.62935             2.28697            -5.11779            -2.18248
Ar              1.5526              3.8401             5.39366             3.42104            -9.54534            -5.72781
Ar             2.30238              3.0843             5.42517            -6.44721            -2.30524              8.0418
Ar             1.55289             4.61856           0.0189661             3.54686            -6.89415             8.27779
Ar             2.32024             5.40685              6.1626              1.3405           0.0407234            -7.25155
Ar             1.54688             5.41628             0.78736            0.920627             4.15986             6.53429
Ar             2.31261             4.62165            0.788068            -1.99012            -5.54808             6.85357
Ar             1.56093             4.65609             1.53952             7.05582             9.49598             -2.2891
Ar             2.31562             5.42569              1.5392           -0.673263             8.25773            -2.43024
Ar             1.56442              5.4047             2.30065             8.58253           -0.899525            -7.22058
Ar             2.33367             4.65472             2.33689             7.21701             8.89372             8.61672
Ar             1.54188             4.64369             3.11119            -1.26122             4.08537             9.44611
Ar             2.33669              5.4031              3.1099             8.53721            -1.59685             8.88792
Ar             1.54441             5.41537              3.8512           -0.157618              3.7585            -4.69307
Ar             2.33795             4.63981             3.87242             9.08671             2.38236             4.57752
Ar             1.53802             4.62537             4.62429            -2.94992            -3.92325            -4.39317
Ar             2.32204             5.38662             4.62807             2.13319            -8.79745            -2.74004
Ar             1.53681             5.41711             5.41476            -3.47269             4.51962             3.49487
Ar             2.29433              4.6197             5.39283            -9.97338            -6.40832            -6.08168
Ar             3.10209             6.17534             6.16359             5.47793            -1.71573            -6.86476
Ar             3.84685            0.791787          0.00350912            -6.60532             8.46274             1.52838
Ar             3.08577            0.777718             0.76034            -1.65538             2.31445            -5.28936
Ar             3.85634           0.0139505            0.783888            -2.45835             6.08269             5.01772
Ar             3.07498           0.0223629             1.52937            -6.36523             9.75597             -6.7257
Ar             3.86354            0.773492             1.53778            0.689638            0.489583            -3.05928
Ar             3.09922            0.782955             2.30547             4.22304             4.61727            -5.11313
Ar             3.85323            0.013268              2.3074             -3.8108             5.79513            -4.26953
Ar              3.0789             6.17035             3.07385            -4.65824            -3.84678            -6.86991
Ar             3.87707            0.782938              3.0827              6.6081             4.60831             -3.0026
Ar             3.09755            0.769891             3.88078             3.49577            -1.09393             8.22546
Ar             3.86006             6.16941             3.84893           -0.829873            -4.29971            -5.70054
Ar             3.07687             6.17777             4.64356            -5.54475           -0.638609             4.02449
Ar             3.84697            0.772986             4.63454            -6.55039             0.24121           0.0883568
Ar             3.10743            0.791724             5.39649             7.80981              8.4294            -4.48258
Ar             3.88147           0.0150311             5.38942             8.53302             6.54396            -7.57506
Ar             3.07367             1.55156             6.16954             -6.9385             2.96848            -4.20048
Ar             3.85556             2.30561              6.1704            -2.80151            -5.05249            -3.88489
Ar             3.10545             2.29967            0.785374             6.94632            -7.65036             5.64611
Ar             3.86909             1.53426            0.792549             3.12417            -4.59635             8.79988
Ar             3.07684             1.55735             1.53308            -5.55539              5.4892            -5.10167
Ar             3.86973              2.3309             1.55474              3.3947             5.99947             4.35786
Ar             3.08747             2.31512             2.31088           -0.909433           -0.902448            -2.74773
Ar             3.85323             1.56718             2.32211            -3.81639             9.78486             2.16053
Ar             3.10381              1.5675             3.07142             6.22586             9.92885            -7.91758
Ar             3.86428             2.31293             3.11177             1.01281            -1.85148             9.70934
Ar             3.10869             2.31484             3.84622             8.36003            -1.02192            -6.86934
Ar             3.86901             1.54074             3.86947             3.08501            -1.76101             3.28346
Ar             3.08301             1.55838             4.62592            -2.86194             5.94655            -3.68122
Ar             3.87804             2.31716             4.61437             7.03497         -0.00405046            -8.73578
Ar             3.07893             2.33962             5.39963            -4.64467             9.81079            -3.11198
Ar             3.88423              1.5287             5.38733             9.74375            -7.02735            -8.49825
Ar             3.07867             3.07447             6.16563            -4.75912            -6.58758            -5.93045
Ar             3.84423             3.87566             6.16494            -7.75417             5.98543            -6.24261
Ar             3.07377             3.84408            0.750728            -6.89321            -7.81722            -9.49364
Ar             3.84977             3.06889            0.754813            -5.32567            -9.03697             -7.7192
Ar             3.10338               3.097             1.53406             6.03281             3.24853            -4.67536
Ar             3.87446             3.88382             1.52632             5.46296             9.55901            -8.07224
Ar             3.07704             3.86874             2.31773            -5.46694             2.95744            0.244314
Ar               3.844             3.10346             2.32861            -7.84378             6.06697             5.00094
Ar             3.09477             3.11071              3.0989             2.27717              9.2386             4.08226
Ar             3.85987             3.87467             3.08208           -0.908538             5.55802             -3.2715
Ar             3.06923              3.8841             3.84565            -8.87539             9.67183            -7.12003
Ar             3.85633             3.07328             3.87249            -2.45437            -7.11007             4.60141
Ar             3.08351             3.10735             4.61744            -2.64295             7.76492            -7.38082
Ar             3.86216             3.86864             4.61154           0.0907213             2.92659            -9.96918
Ar             3.09568             3.87613             5.42064             2.67105               6.197             6.06168
Ar             3.85188              3.0951             5.41378            -4.39497             2.41271             3.06376
Ar             3.09134             4.64112             6.17242            0.776386             2.96502            -2.98036
Ar              3.8657             5.40757          0.00536362             1.63318            0.353215              2.3202
Ar             3.07114             5.40219            0.763836            -8.04839            -1.99546            -3.78137
Ar             3.85424             4.61391            0.787005            -3.37179            -8.92999             6.36041
Ar             3.09583             4.65517             1.53442             2.73924             9.09558            -4.51801
Ar             3.84345             5.40173             1.56094            -8.08667            -2.19334             7.06495
Ar             3.08557             5.41271             2.31307            -1.74768             2.59701            -1.79137
Ar             3.87135             4.65107             2.30974             4.11008             7.30199            -3.24386
Ar             3.07556             4.65219             3.06798            -6.11257             7.79277            -9.42816
Ar             3.87857             5.41273             3.09823             7.26253             2.59084             3.78393
Ar              3.0949              5.4157             3.86875             2.33321             3.90017             2.96906
Ar             3.85519             4.63591             3.85774            -2.95178            0.677862            -1.84221
Ar              3.0712             4.61702             4.65215            -8.01925            -7.56756             7.77844
Ar             3.84766             5.40191              4.6337            -6.24857            -2.12632            -0.27891
Ar             3.07946             5.41424              5.3928            -4.41559             3.26731            -6.09514
Ar             3.84976             4.63023             5.41291            -5.31921            -1.79961             2.68691
Ar             4.62147             6.16577              6.1654            -5.62501            -5.89391            -6.05222
Ar             5.41991            0.763226             6.16542             5.74155            -4.03938            -6.04664
Ar              4.6498            0.794133             0.78423             6.75945             9.50382             5.16682
Ar             5.39979           0.0206617            0.762571            -3.04145              8.9952            -4.33485
Ar             4.65253             6.16263             1.52351             7.94397            -7.23008            -9.29476
Ar             5.39342            0.784041             1.53624            -5.83073             5.08719            -3.72396
Ar             4.64466            0.751769             2.33921             4.51123             -9.0154             9.63075
Ar             5.39078             6.16227             2.32598            -6.98531            -7.40582             3.84875
Ar             4.63016           0.0214645             3.10043            -1.82461             9.33527             4.74972
Ar             5.40363             0.75256             3.10238            -1.36974             -8.6911             5.60572
Ar             4.64035            0.771902             3.83974             2.62002           -0.219094             -9.7047
Ar             5.41691             6.16774             3.86389             4.42526            -4.99861            0.843748
Ar              4.6374           0.0215481             4.65699             1.34116             9.40997             9.89022
Ar             5.42681            0.766164             4.63513             8.76162            -2.73231            0.340584
Ar             4.63499            0.780274             5.41984             0.28343             3.43195              5.7015
Ar             5.39336          0.00516024             5.39654            -5.84806             2.21151            -4.46639
Ar             4.62821             1.54213           0.0208108            -2.67748            -1.14844             9.05187
Ar             5.40968             2.32409             6.15782             1.26796             3.02277            -9.33651
Ar             4.64124             2.29751            0.781136             3.01726            -8.59647             3.81226
Ar             5.40783             1.53753            0.764768            0.472896            -3.16683            -3.34534
Ar             4.64562               1.525              1.5381             4.91928            -8.63323            -2.91086
Ar             5.41866             2.32461              1.5656             5.19035             3.24798             9.10078
Ar             4.64143             2.33424             2.29998             3.09771             7.46231            -7.51282
Ar             5.42042             1.53339             2.29705             5.96699            -4.97155            -8.78976
Ar             4.65248             1.55518             3.09162             7.92451             4.54771            0.895764
Ar             5.41567             2.32033             3.10388             3.88748             1.37796             6.25456
Ar             4.62449             2.32472             3.87997            -4.29333             3.29501             7.86906
Ar             5.40335              1.5641             3.88421              -1.489              8.4363             9.72339
Ar             4.61673              1.5645             4.64583            -7.68969             8.61076             5.01424
Ar             5.40172             2.32992             4.64241            -2.20976             5.57684             3.52364
Ar             4.63911             2.32772              5.4091             2.08265             4.61267             1.02626
Ar             5.42667              1.5512              5.4066             8.69933             2.79428          -0.0677214
Ar             4.63801             3.10352             6.17069             1.60166             6.10055            -3.72839
Ar             5.42509             3.84402          0.00524074             8.00859            -7.84258             2.28159
Ar             4.64436             3.87388            0.787351             4.37903             5.20418             6.53088
Ar             5.40475             3.07174             0.78943           -0.877306            -7.79075             7.42341
Ar             4.63037             3.08917             1.55043             -1.7382           -0.172509             2.47297
Ar              5.3985             3.88313               1.542            -3.61058             9.25717            -1.21476
Ar             4.64647              3.8805             2.32803             5.30106             8.10063             4.74881
Ar             5.39686             3.07194             2.30775            -4.32679            -7.69748            -4.11387
Ar             4.63195             3.10995             3.09609            -1.04747             8.90336             2.85073
Ar             5.39875             3.87264             3.07771            -3.50363             4.67117            -5.17879
Ar             4.61985             3.87335             3.87727            -6.32916             4.97513             6.68919
Ar             5.40186             3.06869             3.87972             -2.1411            -9.11609             7.75884
Ar             4.65517              3.0906             4.64437             9.09679            0.462118             4.38747
Ar             5.40986             3.85981             4.64551             1.35119           -0.936775             4.88284
Ar             4.65023             3.84178             5.39457             6.93584            -8.81183            -5.32377
Ar             5.39581             3.07167             5.41701            -4.77155            -7.81647             4.47866
Ar             4.62968              4.6509             6.17535            -2.04026             7.23578            -1.69469
Ar             5.39972             5.42205          0.00241694             -3.0803             6.67779            0.983653
Ar             4.65613             5.41059            0.770149             9.51231             1.66717            -1.00657
Ar              5.4235             4.62074            0.774826              7.3137            -5.94517             1.06235
Ar             4.64594             4.64101             1.54087             5.06488             2.91453            -1.70214
Ar              5.4249             5.39066             1.53508             7.93301             -7.0356            -4.23822
Ar             4.63662             5.39599             2.33929            0.994352            -4.71265             9.66605
Ar             5.38897             4.64683             2.33658            -7.77077             5.45512             8.47891
Ar             4.63437             4.62904             3.08208          0.00963171            -2.31748            -3.26531
Ar             5.41926              5.4019             3.09529             5.45663            -2.12659             2.50437
Ar             4.64727             5.41323             3.84349              5.6466             2.82474            -8.06469
Ar             5.42195             4.65379             3.85264             6.63182             8.48948            -4.06351
Ar             4.61669             4.61374             4.64092            -7.71355            -8.99996             2.87214
Ar             5.38392             5.40124             4.61207            -9.97735            -2.40889            -9.72385
Ar             4.63219             5.40393             5.41365            -0.94392            -1.23392             3.00766
Ar             5.41113             4.63172             5.39592             1.91502            -1.15795            -4.72995
