256
Position of argon atoms in fcc cell after one integration
Ar             6.15852             6.17707             6.16026            -8.21629           -0.960058            -7.49533
Ar            0.755623             0.75694             6.16122            -6.61483            -6.09585            -7.14278
Ar           0.0230306            0.760215            0.753964             9.04171            -4.81436            -7.28897
Ar            0.748481           0.0123486             0.75801            -9.40971             4.83264            -5.68864
Ar           0.0178723          0.00306686              1.5432             7.03268             1.21072           -0.612916
Ar            0.773017            0.769022             1.53827            0.257303            -1.32121            -2.55383
Ar             6.15976             0.78419             2.33769            -7.70487             4.65001             8.07014
Ar            0.789266          0.00150773             2.33197             6.63643            0.595721             5.81758
Ar             6.16507             6.16407             3.07567            -5.61093             -5.9621            -5.46891
Ar            0.777709            0.790804             3.06876             2.06938             7.25283            -8.18398
Ar           0.0175336            0.748079             3.88666             6.89656            -9.56111             9.71694
Ar            0.756332             6.16357             3.86017            -6.32572            -6.13545           -0.706368
Ar          0.00390843              6.1784             4.63494             1.55174           -0.326241            0.234719
Ar            0.752974            0.775009             4.65043            -7.63256             1.01018             6.33035
Ar          0.00381642            0.758338             5.41145             1.46316            -5.56828             1.84233
Ar             0.77675             6.15543             5.38561             1.71905            -9.38482            -8.33144
Ar             6.17513             1.52074          0.00485695            -1.60772            -9.45009             1.92039
Ar            0.763386             2.32832          0.00478442            -3.54851             4.37827             1.89566
Ar          0.00624376             2.29932            0.779395             2.44346            -7.02985             2.76286
Ar             0.79052             1.55796            0.760367             7.12641              5.1782             -4.7328
Ar           0.0204917             1.56513             1.55928             8.05328             8.00284             5.70377
Ar            0.780042             2.33325             1.56134             3.01834             6.32464             6.51206
Ar             6.17104             2.32698              2.3386            -3.25913             3.85697             8.42936
Ar            0.762402             1.56129             2.33455            -3.94872              6.4938             6.84059
Ar          0.00241964             1.51976             3.09845            0.904864            -9.82713              3.4957
Ar            0.782367             2.29797             3.06457             3.91426            -7.55159            -9.82801
Ar             6.16792             2.29321             3.87655            -4.51273            -9.43469             5.74112
Ar            0.785187             1.52315             3.86011             5.03283            -8.50073           -0.724026
Ar          0.00121838             1.53573             4.61583            0.438459            -3.55054            -7.28073
Ar            0.766561             2.29398             4.61595            -2.31002            -9.12149             -7.2358
Ar             6.15438             2.29513             5.42639            -9.78275            -8.67313             7.72704
Ar            0.765141             1.53243             5.42922            -2.85559            -4.85169              8.8195
Ar           0.0128701              3.0948             6.15704             5.04438             2.06738            -8.72459
Ar            0.792221             3.85212           0.0228248             7.80175             -3.8706             8.96534
Ar           0.0179423             3.88043            0.784273             7.05911             7.26194             4.67568
Ar            0.796837             3.07815            0.777913             9.62352            -4.49157             2.17433
Ar             6.17166             3.08513             1.52002            -2.96628            -1.74767            -9.74294
Ar            0.783235             3.85077             1.54528             4.26228            -4.40573            0.200454
Ar             6.16078             3.83796             2.34098            -7.27055            -9.44964             9.37267
Ar            0.758301             3.10557             2.31602            -5.58556             6.28958           -0.449053
Ar             6.17772             3.09206             3.07108           -0.577914            0.975212            -7.26347
Ar            0.776406              3.8766             3.07285               1.557             5.75945            -6.57407
Ar              6.1652             3.87895             3.88692            -5.60072             6.68448             9.82211
Ar            0.782506             3.09468             3.84384             3.96453             2.00855            -7.12372
Ar           0.0166617             3.09446             4.62125             6.51464             1.92644            -5.14556
Ar            0.767991             3.84596             4.62052            -1.74947            -6.28417            -5.43755
Ar            0.018773             3.85109             5.42778             7.39447            -4.26784             8.26261
Ar            0.795189             3.08063             5.40346             8.98117            -3.52559             -1.2925
Ar             6.16722              4.6187           0.0170269            -4.72204            -6.15823             6.70764
Ar            0.758014             5.42037             6.16187            -5.66877             5.33029            -6.83069
Ar           0.0119573             5.38582            0.796413             4.69302            -8.24027             9.44591
Ar            0.763802             4.64782            0.782497            -3.38316             5.29757             3.97348
Ar          0.00831808             4.65558             1.55068             3.28211             8.34442             2.33314
Ar            0.762627             5.40895             1.53529            -3.82606            0.849275            -3.72158
Ar          0.00383987             5.43035             2.33453              1.4667             9.27153              6.8227
Ar            0.761112             4.65504             2.31918            -4.43037             8.13674            0.792785
Ar              6.1622             4.61502             3.07942            -6.67889            -7.59883            -3.99198
Ar            0.790486             5.39275             3.06857             7.11808            -5.50503            -8.25187
Ar              6.1594             5.42402             3.86158             -7.7977             6.78539           -0.150345
Ar            0.760915             4.62177             3.88277            -4.54602            -4.94341              8.1844
Ar           0.0116993             4.63011             4.62946             4.55266             -1.6618             -1.9145
Ar            0.772248             5.41923              4.6593          -0.0504924             4.87967             9.80778
Ar             6.17875             5.38363             5.41423           -0.177322            -9.10533             2.92163
Ar            0.765779             4.62234             5.39258            -2.61084            -4.72913            -5.57439
Ar             1.53153          0.00750076           0.0117555             -5.1992             2.92679             4.57848
Ar             2.32857            0.756157             6.16984             4.47578            -6.38538             -3.7378
Ar             1.56342            0.765181            0.764655             7.33681            -2.83392            -3.05747
Ar             2.30041           0.0134916            0.773329            -6.58835             5.30176             0.35798
Ar             1.52425          0.00449806             1.52315            -8.06849             1.74592            -8.50122
Ar             2.32955            0.769581             1.52703             4.87405             -1.1013            -6.97506
Ar             1.52209             0.79445             2.30516            -8.90969             8.68035             -4.7303
Ar             2.31721          0.00337464             2.29616           0.0148915             1.32538            -8.26471
Ar             1.53831             6.16396             3.10812            -2.53461            -6.00682             7.29577
Ar             2.32477            0.749339              3.1128             2.98483            -9.07843              9.1436
Ar             1.55958            0.760056             3.87815             5.82635            -4.87684              6.3733
Ar             2.32658           0.0200205             3.87662             3.69955              7.8603             5.77128
Ar             1.56684          0.00430739             4.65512             8.67997             1.66805             8.17413
Ar             2.32761            0.796143             4.64266             4.10653             9.35282             3.27434
Ar             1.54148            0.755745             5.40933            -1.29496            -6.55738              1.0034
Ar             2.33492            0.015444             5.38798             6.98223             6.06999            -7.38067
Ar             1.55576             1.52989           0.0117031             4.32643            -5.84859             4.55232
Ar             2.32117             2.30496             6.16189             1.57105            -4.80579             -6.8175
Ar             1.54575             2.32468            0.760869            0.391649             2.94754            -4.53733
Ar             2.29745             1.54805            0.784047            -7.74961             1.28824             4.57869
Ar             1.56353             1.53712             1.55188             7.36987            -3.00447             2.79165
Ar             2.32339              2.3062             1.52393              2.4547             -4.3121            -8.19279
Ar             1.52769             2.33998             2.33906            -6.70275             8.97001             8.60584
Ar             2.33378             1.54442             2.33897             6.53791           -0.142388             8.57516
Ar             1.52953             1.56696             3.08689            -5.98611              8.7218            -1.04832
Ar             2.31949             2.31485             3.10626            0.911927           -0.910736             6.57222
Ar             1.55669             2.32762             3.85417             4.69093             4.11344            -3.05879
Ar             2.32627             1.52652             3.85149             3.58455            -7.18082            -4.11502
Ar             1.53057             1.55042             4.63583            -5.57851             2.21756            0.586712
Ar             2.31202             2.29289             4.63844            -2.02216            -9.54996             1.61151
Ar              1.5303              2.3315             5.42013            -5.68679             5.63153              5.2613
Ar              2.3053             1.52711             5.38892            -4.66261            -6.95004            -7.00814
Ar             1.55942              3.1129             6.16416             5.76608             9.18637            -5.94782
Ar             2.32423             3.85512          0.00237452             2.77299            -2.69009             0.91723
Ar             1.56222             3.88251            0.772594             6.86638             8.08611            0.072869
Ar             2.30592             3.09645            0.776421            -4.41985             2.70799             1.56983
Ar             1.52978             3.11146             1.53817            -5.88161             8.60518            -2.58739
Ar             2.32366             3.84335             1.53747             2.55972            -7.31636            -2.87278
Ar             1.54313             3.84564             2.34109           -0.636987            -6.42372             9.40446
Ar               2.312             3.07041             2.32039            -2.02888            -7.53559             1.26574
Ar              1.5523             3.07934             3.09779              2.9609            -4.01283             3.23622
Ar             2.31872             3.86619             3.11459             0.61338             1.66347             9.84905
Ar              1.5541             3.84921             3.85227             3.67202            -5.01423            -3.80402
Ar             2.34135               3.067             3.88399             9.51502            -8.87302             8.66924
Ar             1.56776              3.0812             4.61948             9.03599            -3.28612            -5.84081
Ar             2.32298             3.84894              4.6288             2.28949            -5.11611            -2.18117
Ar             1.55347             3.83768              5.3922             3.42299            -9.54341            -5.72816
Ar             2.30075             3.08372             5.42721            -6.44235            -2.30618             8.04078
Ar             1.55379             4.61681           0.0210711             3.54847            -6.89158             8.27845
Ar             2.32058             5.40686             6.16076             1.34143           0.0403297            -7.25551
Ar             1.54712             5.41734            0.789022            0.921955             4.15893             6.53516
Ar              2.3121             4.62024            0.789812            -1.98794            -5.54581             6.85585
Ar             1.56273              4.6585             1.53894             7.05567             9.49664            -2.28558
Ar             2.31545             5.42779             1.53858           -0.671286             8.25418            -2.42784
Ar             1.56661             5.40447             2.29881             8.58281           -0.899548            -7.21937
Ar              2.3355             4.65698             2.33908             7.22094             8.89362             8.61885
Ar             1.54156             4.64473             3.11359            -1.25857               4.087             9.44653
Ar             2.33886              5.4027             3.11216             8.54029             -1.5974             8.88977
Ar             1.54437             5.41632             3.85001           -0.156127             3.75716             -4.6898
Ar             2.34026             4.64042             3.87359             9.08973             2.38251             4.58001
Ar             1.53727             4.62437             4.62318            -2.94801            -3.92222             -4.3918
Ar             2.32258             5.38438             4.62737             2.13574            -8.79713             -2.7377
Ar             1.53593             5.41826             5.41565             -3.4698             4.51818              3.4943
Ar             2.29179             4.61807             5.39128            -9.97083            -6.40869            -6.08106
Ar             3.10349              6.1749             6.16184              5.4796            -1.72597            -6.87925
Ar             3.84517            0.793938          0.00389763            -6.60536             8.46043              1.5273
Ar             3.08534            0.778306            0.758995            -1.65344               2.312            -5.29466
Ar             3.85572           0.0154969            0.785164            -2.45858             6.08033             5.01728
Ar             3.07336           0.0248432             1.52766            -6.36218             9.75179            -6.72284
Ar             3.86371            0.773617               1.537            0.690248            0.491949             -3.0588
Ar              3.1003            0.784129             2.30417             4.22474             4.61761            -5.11191
Ar             3.85226           0.0147416             2.30631            -3.80931              5.7945            -4.26833
Ar             3.07772             6.16937              3.0721            -4.65727            -3.84504            -6.87039
Ar             3.87875             0.78411             3.08193             6.61056             4.60918            -3.00244
Ar             3.09844            0.769613             3.88287             3.49914            -1.09315             8.22671
Ar             3.85985             6.16832             3.84748           -0.829243            -4.30921            -5.70183
Ar             3.07546              6.1776             4.64458            -5.54349           -0.646352             4.02568
Ar              3.8453            0.773047             4.63456            -6.54997            0.237913           0.0920571
Ar             3.10942            0.793867             5.39535             7.81107             8.42664             -4.4812
Ar             3.88364           0.0166946              5.3875             8.53583             6.53931            -7.57583
Ar             3.07191             1.55232             6.16848            -6.93647             2.97011            -4.20006
Ar             3.85484             2.30432             6.16941            -2.80158            -5.05151            -3.89845
Ar             3.10722             2.29773            0.786809             6.94841            -7.65092             5.64175
Ar             3.86989             1.53309            0.794787             3.12688            -4.59546             8.79998
Ar             3.07543             1.55875             1.53178            -5.55371             5.48822            -5.09822
Ar             3.87059             2.33242             1.55584             3.39591             6.00102             4.36049
Ar             3.08724             2.31489             2.31018           -0.907169           -0.903569            -2.74622
Ar             3.85225             1.56967             2.32266            -3.81623             9.78476             2.16235
Ar              3.1054             1.57002             3.06941             6.22698             9.92985            -7.91353
Ar             3.86454             2.31246             3.11424               1.013            -1.85021             9.71289
Ar             3.11082             2.31458             3.84448             8.36156             -1.0216            -6.86619
Ar             3.86979             1.54029              3.8703              3.0871            -1.75948             3.28528
Ar             3.08228             1.55989             4.62498            -2.85991             5.94831            -3.67963
Ar             3.87983             2.31716             4.61215             7.03895         -0.00343536            -8.73688
Ar             3.07775             2.34211             5.39884            -4.64287             9.81252            -3.11182
Ar             3.88671             1.52692             5.38517             9.74784            -7.02704            -8.50086
Ar             3.07746              3.0728             6.16412            -4.75712            -6.58472             -5.9359
Ar             3.84226             3.87718             6.16335            -7.75662              5.9868            -6.24956
Ar             3.07202             3.84209            0.748313            -6.89041            -7.81745            -9.50033
Ar             3.84841             3.06659            0.752849            -5.32498            -9.03611            -7.72793
Ar             3.10491             3.09783             1.53287             6.03299             3.24873            -4.67238
Ar             3.87585             3.88626             1.52426             5.46447             9.56174             -8.0743
Ar             3.07565             3.86949             2.31779            -5.46467             2.95652            0.245611
Ar             3.84201               3.105             2.32988            -7.84291             6.06738             5.00295
Ar             3.09535             3.11306             3.09994             2.27828             9.23919             4.08366
Ar             3.85964             3.87608             3.08125           -0.906586             5.56016            -3.27069
Ar             3.06697             3.88656             3.84384            -8.87151              9.6721            -7.11789
Ar             3.85571             3.07148             3.87366             -2.4528            -7.10737             4.60212
Ar             3.08284             3.10932             4.61557             -2.6408             7.76417            -7.37787
Ar             3.86218             3.86939             4.60901           0.0932632             2.92956            -9.97006
Ar             3.09636             3.87771             5.42218             2.67118             6.19896             6.05992
Ar             3.85076             3.09571             5.41456            -4.39216             2.41223             3.06249
Ar             3.09154             4.64188             6.17166            0.777434             2.96758            -2.98927
Ar             3.86612             5.40766          0.00595286             1.63371             0.35273              2.3141
Ar              3.0691             5.40169            0.762873            -8.04728            -1.99587            -3.79157
Ar             3.85339             4.61164            0.788621            -3.37176            -8.92802             6.35476
Ar             3.09653             4.65748             1.53327             2.74018             9.09656            -4.51449
Ar              3.8414             5.40118             1.56273            -8.08633            -2.19333             7.06726
Ar             3.08512             5.41337             2.31262            -1.74699              2.5962            -1.79024
Ar              3.8724             4.65293             2.30892             4.11244              7.3018            -3.24205
Ar             3.07401             4.65417             3.06558            -6.10905             7.79242             -9.4256
Ar             3.88041             5.41339              3.0992             7.26494             2.58543             3.78364
Ar             3.09549             5.41669             3.86951             2.33494             3.89854                2.97
Ar             3.85444             4.63608             3.85728            -2.94976            0.678565            -1.84164
Ar             3.06916             4.61509             4.65413            -8.01621              -7.565             7.77919
Ar             3.84607             5.40137             4.63363            -6.24797            -2.12703           -0.276342
Ar             3.07834             5.41507             5.39125            -4.41504             3.26615            -6.09414
Ar             3.84841             4.62977             5.41359            -5.31585            -1.79792             2.68572
Ar             4.62004             6.16427             6.16386             -5.6234            -5.90277            -6.06251
Ar             5.42137            0.762198             6.16388             5.73965            -4.04855            -6.05705
Ar             4.65152             0.79655            0.785544             6.76363             9.50673             5.16802
Ar             5.39902           0.0229482            0.761467            -3.04119             8.98797             -4.3453
Ar             4.65455             6.16079             1.52115             7.94536             -7.2327            -9.29481
Ar             5.39193            0.785335              1.5353            -5.83116              5.0875            -3.72118
Ar             4.64581            0.749476             2.34166             4.51341            -9.01571               9.632
Ar               5.389             6.16039             2.32696            -6.98684            -7.41347             3.84969
Ar              4.6297           0.0238369             3.10164             -1.8217             9.32393             4.75205
Ar             5.40328            0.750349             3.10381            -1.37094            -8.69731             5.60823
Ar             4.64102            0.771846             3.83727             2.62034           -0.219102            -9.70231
Ar             5.41803             6.16647             3.86411             4.42219            -5.00061            0.844516
Ar             4.63774           0.0239412              4.6595             1.34465             9.41203             9.89109
Ar             5.42903            0.765469             4.63521             8.76204            -2.73478            0.341692
Ar             4.63507            0.781146             5.42129            0.285342             3.42909             5.69786
Ar             5.39187          0.00572138              5.3954            -5.84665             2.20185            -4.46636
Ar             4.62753             1.54184           0.0231116            -2.67489            -1.14529             9.04354
Ar             5.41001             2.32486             6.15545             1.26472             3.02355             -9.3389
Ar             4.64201             2.29532            0.782105             3.01952            -8.59637              3.8122
Ar             5.40795             1.53673            0.763917            0.474062              -3.166            -3.34735
Ar             4.64687              1.5228             1.53736             4.91911            -8.62947            -2.90733
Ar             5.41998             2.32544             1.56791             5.18748             3.24845             9.10295
Ar             4.64222             2.33614             2.29807              3.0995             7.46451            -7.51222
Ar             5.42194             1.53213             2.29481              5.9657            -4.96975            -8.78794
Ar              4.6545             1.55634             3.09185             7.92599             4.54918            0.895887
Ar             5.41666             2.32068             3.10547             3.88568             1.37817             6.25514
Ar              4.6234             2.32556             3.88197            -4.28803             3.29478             7.86959
Ar             5.40297             1.56624             3.88668            -1.48979             8.43571              9.7246
Ar             4.61478             1.56669             4.64711            -7.68552             8.60949             5.01439
Ar             5.40115             2.33134              4.6433             -2.2119             5.58007             3.52564
Ar             4.63964             2.32889             5.40936             2.08391             4.61502             1.02627
Ar             5.42888             1.55191             5.40659              8.6978              2.7914          -0.0683312
Ar             4.63842             3.10507             6.16974             1.60355             6.10264            -3.73592
Ar             5.42713             3.84203          0.00582059             8.00808            -7.84312             2.27885
Ar             4.64547              3.8752            0.789012             4.38196             5.20406             6.53161
Ar             5.40453             3.06976            0.791317           -0.878459             -7.7901             7.41943
Ar             4.62993             3.08912             1.55106            -1.73677           -0.170899             2.47416
Ar             5.39758             3.88549             1.54169            -3.61138              9.2594            -1.21459
Ar             4.64781             3.88256             2.32924             5.30399             8.10168             4.75105
Ar             5.39576             3.06998             2.30671            -4.32697            -7.69476             -4.1123
Ar             4.63168             3.11221             3.09681            -1.04567             8.90341             2.85166
Ar             5.39786             3.87383             3.07639             -3.5054             4.67279            -5.17767
Ar             4.61824             3.87461             3.87897            -6.32639             4.97568             6.68945
Ar             5.40132             3.06637             3.88169            -2.14182            -9.11318              7.7593
Ar             4.65749             3.09072             4.64549             9.09691            0.465725             4.39089
Ar              5.4102             3.85957             4.64675             1.34968           -0.935453             4.88594
Ar             4.65199             3.83954             5.39321             6.93629            -8.80979            -5.32342
Ar              5.3946             3.06968             5.41815            -4.76847            -7.81408             4.47805
Ar             4.62916             4.65274             6.17492            -2.03905             7.23791            -1.70276
Ar             5.39893             5.42375          0.00266472            -3.08163             6.67648            0.965048
Ar             4.65855             5.41101            0.769893             9.51209             1.66506            -1.01276
Ar             5.42536             4.61923            0.775096             7.31305              -5.943             1.06295
Ar             4.64723             4.64175             1.54043             5.06601             2.91764             -1.6996
Ar             5.42692             5.38887               1.534             7.93448            -7.03561            -4.23738
Ar             4.63687             5.39479             2.34175             0.99701            -4.71469             9.66657
Ar             5.38699             4.64822             2.33873            -7.77047             5.45675                8.48
Ar             4.63438             4.62845             3.08125           0.0101078            -2.31576            -3.26192
Ar             5.42065             5.40136             3.09593             5.45385            -2.12831             2.50619
Ar              4.6487             5.41395             3.84144              5.6482             2.82342            -8.06209
Ar             5.42363             4.65595             3.85161             6.62983               8.489            -4.06057
Ar             4.61473             4.61145             4.64165            -7.71114            -8.99657             2.87296
Ar             5.38138             5.40063              4.6096            -9.97721            -2.40906            -9.71978
Ar             4.63195             5.40362             5.41441           -0.943385            -1.23404              3.0063
Ar             5.41162             4.63142             5.39472             1.91526            -1.15845            -4.72906
