256
Position of argon atoms in fcc cell after one integration
Ar             6.17915             6.17915             6.17915            -8.00989           -0.698876            -7.36503
Ar            0.772393            0.772393             6.17915            -6.57918            -6.06067            -6.96127
Ar        4.61339e-007            0.772393            0.772393             9.07102            -4.76852            -7.21549
Ar            0.772393        2.47999e-007            0.772393            -9.39543             4.87625            -5.62731
Ar        3.57175e-007        6.11227e-008             1.54479             7.02292             1.20182           -0.633564
Ar            0.772394            0.772393             1.54479            0.234382            -1.33183            -2.57332
Ar             6.17915            0.772394             2.31718            -7.54753             4.63118             8.06024
Ar            0.772394        3.01113e-008             2.31718             6.63839            0.592059             5.81256
Ar             6.17915             6.17915             3.08957            -5.46526            -5.89343            -5.46739
Ar            0.772394            0.772394             3.08957             2.11402             7.23533            -8.18537
Ar        3.50889e-007            0.772393             3.86197             6.89932            -9.55779             9.70702
Ar            0.772393             6.17915             3.86197            -6.30665             -6.1034           -0.712302
Ar        7.74666e-008             6.17915             4.63436             1.52318           -0.268868            0.218818
Ar            0.772393            0.772394             4.63436            -7.64214             1.04923             6.31184
Ar        7.77615e-008            0.772393             5.40675             1.52898            -5.49486             1.85003
Ar            0.772394             6.17915             5.40675               1.713            -9.27824            -8.29951
Ar             6.17915             1.54479        9.66199e-008            -1.54973            -9.46409             1.89978
Ar            0.772393             2.31718        9.50212e-008            -3.53313             4.38246             1.86834
Ar         1.2552e-007             2.31718            0.772394             2.46803            -7.01987             2.74453
Ar            0.772394             1.54479            0.772393             7.13157             5.18082            -4.72304
Ar        4.10274e-007             1.54479             1.54479             8.06696             7.99799             5.69567
Ar            0.772394             2.31718             1.54479             2.99661             6.31245             6.50472
Ar             6.17915             2.31718             2.31718            -3.12143             3.85388             8.41823
Ar            0.772393             1.54479             2.31718            -3.90851             6.48549             6.82028
Ar        5.02734e-008             1.54479             3.08957            0.988494             -9.8529             3.48369
Ar            0.772394             2.31718             3.08957             3.92895            -7.55852            -9.83428
Ar             6.17915             2.31718             3.86197            -4.33058            -9.42503             5.73046
Ar            0.772394             1.54479             3.86197             5.03281            -8.51802           -0.736411
Ar        2.58119e-008             1.54479             4.63436            0.507522            -3.56853            -7.29575
Ar            0.772393             2.31718             4.63436            -2.28187              -9.129            -7.24631
Ar             6.17915             2.31718             5.40676            -9.68993            -8.66878             7.72057
Ar            0.772393             1.54479             5.40676            -2.84829            -4.86618             8.84793
Ar        2.58119e-007             3.08957             6.17915             5.07523             2.04718            -8.65627
Ar            0.772394             3.86197        4.56993e-007             7.79321            -3.87646             8.98556
Ar        3.58681e-007             3.86197            0.772394             7.05252             7.25669             4.67299
Ar            0.772394             3.08957            0.772394             9.60112            -4.49263             2.17292
Ar             6.17915             3.08957             1.54479            -2.92032            -1.74932            -9.73937
Ar            0.772394             3.86197             1.54479             4.26771            -4.40321            0.190741
Ar             6.17915             3.86197             2.31718            -7.16941            -9.43693             9.34843
Ar            0.772393             3.08957             2.31718            -5.50188             6.28834           -0.458998
Ar             6.17915             3.08957             3.08957           -0.538347            0.976287            -7.27744
Ar            0.772394             3.86197             3.08957             1.59947             5.74908            -6.57765
Ar             6.17915             3.86197             3.86197            -5.39018              6.6747             9.80651
Ar            0.772394             3.08957             3.86197             4.00128             2.00659            -7.13218
Ar        3.35306e-007             3.08957             4.63436             6.59291             1.91809            -5.16465
Ar            0.772393             3.86197             4.63436            -1.71728             -6.3036            -5.45122
Ar         3.7487e-007             3.86197             5.40676             7.37083            -4.28175             8.26991
Ar            0.772394             3.08957             5.40675             8.95566             -3.5136            -1.29704
Ar             6.17915             4.63436        3.39978e-007            -4.66109            -6.16108             6.68477
Ar            0.772393             5.40676             6.17915            -5.64287             5.37919            -6.74246
Ar        2.40161e-007             5.40675            0.772394             4.72213            -8.22321             9.45647
Ar            0.772393             4.63436            0.772394            -3.37352             5.29069             3.97778
Ar        1.66233e-007             4.63436             1.54479             3.26853             8.33796             2.30873
Ar            0.772393             5.40675             1.54479            -3.85205            0.879238            -3.74676
Ar         7.8072e-008             5.40676             2.31718             1.53508             9.28556             6.82302
Ar            0.772393             4.63436             2.31718            -4.43831             8.12952            0.780969
Ar             6.17915             4.63436             3.08957             -6.6451            -7.61132            -3.99579
Ar            0.772394             5.40675             3.08957             7.12271            -5.50401            -8.26136
Ar             6.17915             5.40676             3.86197            -7.72759             6.79495           -0.158086
Ar            0.772393             4.63436             3.86197             -4.4792            -4.95712              8.1756
Ar        2.35892e-007             4.63436             4.63436              4.6382             -1.6773            -1.93487
Ar            0.772394             5.40676             4.63436          -0.0592058             4.92782             9.80163
Ar             6.17915             5.40675             5.40675           -0.137334            -9.07712             2.95724
Ar            0.772393             4.63436             5.40675            -2.59438             -4.7261            -5.56871
Ar             1.54479        1.51286e-007        2.37289e-007            -5.22996             2.97464             4.66567
Ar             2.31718            0.772393             6.17915             4.48012             -6.3863            -3.58837
Ar             1.54479            0.772393            0.772393              7.3162            -2.83883            -3.02347
Ar             2.31718        2.69946e-007            0.772394            -6.60085             5.30778            0.376293
Ar             1.54479        9.09391e-008             1.54479            -8.08252             1.78808            -8.51527
Ar             2.31718            0.772393             1.54479             4.85519            -1.11209            -6.99362
Ar             1.54479            0.772394             2.31718            -8.94253             8.66756            -4.72579
Ar             2.31718        6.75641e-008             2.31718           0.0067143             1.32847            -8.26502
Ar             1.54479             6.17915             3.08957             -2.5605            -5.93616             7.28965
Ar             2.31718            0.772393             3.08957             2.98349            -9.05606             9.12564
Ar             1.54479            0.772393             3.86197             5.80889            -4.82437             6.35731
Ar             2.31718        4.01038e-007             3.86197              3.6903             7.88537             5.75579
Ar             1.54479        8.77417e-008             4.63436             8.66359             1.72521             8.15729
Ar             2.31718            0.772394             4.63436             4.09467             9.32829             3.25266
Ar             1.54479            0.772393             5.40675            -1.30833            -6.53554             1.02695
Ar             2.31718        3.08966e-007             5.40675             6.97104             6.07501            -7.38487
Ar             1.54479             1.54479        2.36917e-007             4.30281            -5.86444             4.65834
Ar             2.31718             2.31718             6.17915             1.56468            -4.80361            -6.74307
Ar             1.54479             2.31718            0.772393            0.365307             2.94931            -4.52528
Ar             2.31718             1.54479            0.772394            -7.76666             1.28025             4.59639
Ar             1.54479             1.54479             1.54479             7.36778            -3.02103             2.78542
Ar             2.31718             2.31718             1.54479             2.43263            -4.32173            -8.21009
Ar             1.54479             2.31718             2.31718            -6.74276             8.96451              8.5989
Ar             2.31718             1.54479             2.31718             6.51692           -0.146489              8.5641
Ar             1.54479             1.54479             3.08957            -6.01123             8.71212            -1.06326
Ar             2.31718             2.31718             3.08957            0.904874           -0.921964             6.55538
Ar             1.54479             2.31718             3.86197             4.66689             4.10291            -3.07199
Ar             2.31718             1.54479             3.86197             3.56517            -7.18589             -4.1258
Ar             1.54479             1.54479             4.63436             -5.5977             2.21015            0.571917
Ar             2.31718             2.31718             4.63436            -2.03558            -9.55504             1.59368
Ar             1.54479             2.31718             5.40676            -5.70635               5.627             5.25803
Ar             2.31718             1.54479             5.40675            -4.68459            -6.94845            -7.01895
Ar             1.54479             3.08957             6.17915             5.74725             9.16318             -5.8507
Ar             2.31718             3.86197        4.80073e-008             2.77047            -2.69814            0.943938
Ar             1.54479             3.86197            0.772394             6.84225             8.07581           0.0863673
Ar             2.31718             3.08957            0.772394            -4.43586             2.69967             1.60253
Ar             1.54479             3.08957             1.54479             -5.9151             8.60134             -2.6136
Ar             2.31718             3.86197             1.54479             2.54158            -7.32536            -2.88125
Ar             1.54479             3.86197             2.31718           -0.667134             -6.4214             9.39543
Ar             2.31718             3.08957             2.31718            -2.04596            -7.53655             1.25828
Ar             1.54479             3.08957             3.08957             2.94473             -4.0318             3.22581
Ar             2.31718             3.86197             3.08957            0.599079             1.65532             9.83062
Ar             1.54479             3.86197             3.86197             3.65062            -5.02091             -3.8197
Ar             2.31718             3.08957             3.86197             9.49187            -8.88272             8.65169
Ar             1.54479             3.08957             4.63436             9.03134            -3.30058            -5.86352
Ar             2.31718             3.86197             4.63436             2.27119            -5.13047            -2.19459
Ar             1.54479             3.86197             5.40675              3.4077             -9.5587             -5.7149
Ar             2.31718             3.08957             5.40676            -6.47969            -2.30079             8.04468
Ar             1.54479             4.63436        4.22582e-007             3.52916            -6.91122             8.30897
Ar             2.31718             5.40675             6.17915             1.33488           0.0460825            -7.19993
Ar             1.54479             5.40675            0.772394            0.909757             4.16486             6.55293
Ar             2.31718             4.63436            0.772394            -2.00659            -5.56017             6.84957
Ar             1.54479             4.63436             1.54479               7.051             9.48729            -2.30934
Ar             2.31718             5.40676             1.54479           -0.689108             8.28761            -2.45033
Ar             1.54479             5.40675             2.31718             8.57601           -0.896329            -7.22861
Ar             2.31718             4.63436             2.31718              7.1926             8.89218             8.60378
Ar             1.54479             4.63436             3.08957            -1.28239             4.07056             9.43938
Ar             2.31718             5.40675             3.08957             8.51558            -1.59368             8.87478
Ar             1.54479             5.40675             3.86197           -0.175786             3.76904            -4.71389
Ar             2.31718             4.63436             3.86197             9.06522             2.37861             4.56191
Ar             1.54479             4.63436             4.63436            -2.96335            -3.93414            -4.40535
Ar             2.31718             5.40675             4.63436             2.11493             -8.7994            -2.75735
Ar             1.54479             5.40676             5.40675            -3.49284             4.52681             3.49681
Ar             2.31718             4.63436             5.40675            -9.99512            -6.40339            -6.08692
Ar             3.08957             6.17915             6.17915              5.4622            -1.60558            -6.72964
Ar             3.86197            0.772394        7.82117e-008            -6.60787             8.48445             1.53783
Ar             3.08957            0.772394            0.772393            -1.67302             2.33955             -5.2443
Ar             3.86197        3.10736e-007            0.772394            -2.45888             6.10981             5.02884
Ar             3.08957        4.97565e-007             1.54479             -6.3863             9.78332            -6.74917
Ar             3.86197            0.772394             1.54479            0.683615            0.471511             -3.0665
Ar             3.08957            0.772394             2.31718             4.20667             4.61104            -5.12192
Ar             3.86197         2.9492e-007             2.31718            -3.82366             5.79882            -4.28114
Ar             3.08957             6.17915             3.08957             -4.6675            -3.83526            -6.87063
Ar             3.86197            0.772394             3.08957             6.59261             4.60982            -3.00668
Ar             3.08957            0.772393             3.86197             3.47423            -1.08921              8.2168
Ar             3.86197             6.17915             3.86197           -0.837123            -4.20545            -5.69964
Ar             3.08957             6.17915             4.63436            -5.55498           -0.567951             4.01379
Ar             3.86197            0.772394             4.63436            -6.55721            0.279549           0.0668358
Ar             3.08957            0.772394             5.40675             7.79687             8.46583            -4.48897
Ar             3.86197        3.35337e-007             5.40675             8.51436             6.59352            -7.57103
Ar             3.08957             1.54479             6.17915              -6.957             2.95114            -4.18653
Ar             3.86197             2.31718             6.17915            -2.80251            -5.05936             -3.7553
Ar             3.08957             2.31718            0.772394             6.92862            -7.64824             5.70238
Ar             3.86197             1.54479            0.772394             3.10373            -4.60158             8.82107
Ar             3.08957             1.54479             1.54479             -5.5678             5.48723            -5.12589
Ar             3.86197             2.31718             1.54479              3.3845             5.98743             4.33668
Ar             3.08957             2.31718             2.31718           -0.928067            -0.89938            -2.75918
Ar             3.86197             1.54479             2.31718            -3.82611             9.78332             2.14789
Ar             3.08957             1.54479             3.08957             6.21601             9.91516             -7.9397
Ar             3.86197             2.31718             3.08957              1.0065            -1.86193             9.68932
Ar             3.08957             2.31718             3.86197             8.34407            -1.02451            -6.88772
Ar             3.86197             1.54479             3.86197             3.06681            -1.77374             3.27036
Ar             3.08957             1.54479             4.63436            -2.87576             5.92883            -3.69579
Ar             3.86197             2.31718             4.63436             7.01346           -0.011902            -8.73959
Ar             3.08957             2.31718             5.40675            -4.65712             9.79797            -3.11106
Ar             3.86197             1.54479             5.40675             9.71526            -7.02475            -8.47316
Ar             3.08957             3.08957             6.17915            -4.77279            -6.60878            -5.88427
Ar             3.86197             3.86197             6.17915            -7.74651             5.97827             -6.1684
Ar             3.08957             3.86197            0.772393            -6.91397            -7.81549            -9.44182
Ar             3.86197             3.08957            0.772393            -5.33555            -9.04172            -7.64458
Ar             3.08957             3.08957             1.54479              6.0268             3.24229            -4.69832
Ar             3.86197             3.86197             1.54479             5.45122             9.54314            -8.07428
Ar             3.08957             3.86197             2.31718            -5.48601             2.95999            0.233467
Ar             3.86197             3.08957             2.31718            -7.85668             6.06372             4.98703
Ar             3.08957             3.08957             3.08957             2.26692             9.23093             4.07117
Ar             3.86197             3.86197             3.08957           -0.922269             5.54338            -3.28013
Ar             3.08957             3.86197             3.86197            -8.89981             9.66826            -7.13401
Ar             3.86197             3.08957             3.86197            -2.46986            -7.12302             4.59304
Ar             3.08957             3.08957             4.63436            -2.65633             7.76299            -7.40043
Ar             3.86197             3.86197             4.63436           0.0753809             2.90872            -9.97345
Ar             3.08957             3.86197             5.40676             2.66671             6.18397               6.068
Ar             3.86197             3.08957             5.40675               -4.42             2.41707             3.07047
Ar             3.08957             4.63436             6.17915            0.765405             2.94656            -2.90414
Ar             3.86197             5.40675        1.20197e-007             1.62938            0.358287             2.36335
Ar             3.08957             5.40675            0.772393            -8.05841            -1.99072            -3.69976
Ar             3.86197             4.63436            0.772394            -3.37931            -8.93979             6.40645
Ar             3.08957             4.63436             1.54479             2.73019             9.08567            -4.54268
Ar             3.86197             5.40675             1.54479            -8.09473            -2.19398             7.05008
Ar             3.08957             5.40675             2.31718            -1.75603             2.60353            -1.79937
Ar             3.86197             4.63436             2.31718             4.09101             7.30003            -3.25663
Ar             3.08957             4.63436             3.08957            -6.13147             7.78588            -9.44334
Ar             3.86197             5.40675             3.08957             7.24326             2.63253             3.78155
Ar             3.08957             5.40675             3.86197             2.32246               3.914             2.95999
Ar             3.86197             4.63436             3.86197            -2.96976            0.671102            -1.85003
Ar             3.08957             4.63436             4.63436            -8.03735            -7.58629             7.76757
Ar             3.86197             5.40675             4.63436            -6.25996            -2.10608           -0.298471
Ar             3.08957             5.40675             5.40675            -4.42122             3.27342            -6.10004
Ar             3.86197             4.63436             5.40675            -5.34623            -1.80731             2.69082
Ar             4.63436             6.17915             6.17915            -5.63951            -5.79089            -5.95844
Ar             5.40676            0.772393             6.17915             5.75518            -3.97656            -5.94623
Ar             4.63436            0.772394            0.772394             6.73208             9.50072             5.18632
Ar             5.40675        4.60795e-007            0.772393            -3.04331             9.06033            -4.25184
Ar             4.63436             6.17915             1.54479             7.93024             -7.1984            -9.30082
Ar             5.40675            0.772394             1.54479            -5.82598             5.09384            -3.74157
Ar             4.63436            0.772393             2.31718             4.49294             -9.0051             9.62066
Ar             5.40675             6.17915             2.31718            -6.97501            -7.34275             3.84198
Ar             4.63436        4.78847e-007             3.08957            -1.84423             9.41526             4.73739
Ar             5.40675            0.772393             3.08957             -1.3596            -8.64345             5.59008
Ar             4.63436            0.772394             3.86197             2.61025           -0.207526            -9.71923
Ar             5.40675             6.17915             3.86197             4.44655            -4.96658            0.837123
Ar             4.63436        4.79809e-007             4.63436             1.31901             9.43419             9.87884
Ar             5.40676            0.772393             4.63436             8.76064            -2.71249            0.328379
Ar             4.63436            0.772394             5.40676            0.271005             3.45317             5.73229
Ar             5.40675        1.16891e-007             5.40675            -5.85467             2.29835            -4.46303
Ar             4.63436             1.54479        4.64707e-007            -2.69631            -1.17283             9.13724
Ar             5.40675             2.31718             6.17915             1.28971             3.02042            -9.29197
Ar             4.63436             2.31718            0.772394             2.99722            -8.59645             3.83404
Ar             5.40675             1.54479            0.772393            0.467544            -3.17148            -3.31462
Ar             4.63436             1.54479             1.54479             4.91318             -8.6581            -2.93069
Ar             5.40676             2.31718             1.54479             5.20737              3.2432             9.08414
Ar             4.63436             2.31718             2.31718             3.07932             7.45201            -7.52068
Ar             5.40676             1.54479             2.31718             5.97339            -4.98459            -8.80276
Ar             4.63436             1.54479             3.08957             7.91162             4.53597             0.88992
Ar             5.40675             2.31718             3.08957              3.9021             1.37394             6.24714
Ar             4.63436             2.31718             3.86197            -4.32661             3.29447             7.86065
Ar             5.40675             1.54479             3.86197            -1.48686              8.4344             9.71313
Ar             4.63436             1.54479             4.63436            -7.71294              8.6111             5.00656
Ar             5.40675             2.31718             4.63436            -2.19581             5.55834             3.50719
Ar             4.63436             2.31718             5.40675             2.06977             4.59944             1.02542
Ar             5.40676             1.54479             5.40675             8.70235             2.80984          -0.0659199
Ar             4.63436             3.08957             6.17915             1.58544             6.08325            -3.65917
Ar             5.40676             3.86197        1.16704e-007             8.01386            -7.83807             2.29469
Ar             4.63436             3.86197            0.772394             4.35713             5.20554             6.54775
Ar             5.40675             3.08957            0.772394            -0.87344            -7.79504             7.46635
Ar             4.63436             3.08957             1.54479            -1.75176           -0.184332             2.45766
Ar             5.40675             3.86197             1.54479             -3.6021              9.2407            -1.21891
Ar             4.63436             3.86197             2.31718             5.27757             8.09534             4.73464
Ar             5.40675             3.08957             2.31718            -4.32051            -7.70959            -4.12519
Ar             4.63436             3.08957             3.08957            -1.06296             8.89798             2.84127
Ar             5.40675             3.86197             3.08957            -3.48766             4.65865            -5.18815
Ar             4.63436             3.86197             3.86197            -6.35182             4.97147             6.68264
Ar             5.40675             3.08957             3.86197            -2.13507            -9.13022             7.74987
Ar             4.63436             3.08957             4.63436             9.08963            0.441908             4.36567
Ar             5.40675             3.86197             4.63436             1.36052           -0.947599             4.86129
Ar             4.63436             3.86197             5.40675             6.92557            -8.82565            -5.32548
Ar             5.40675             3.08957             5.40676            -4.78866            -7.82739             4.48012
Ar             4.63436             4.63436             6.17915             -2.0539             7.21732            -1.62267
Ar             5.40675             5.40676         5.6932e-008            -3.06986              6.6863             1.11942
Ar             4.63436             5.40675            0.772393             9.50713             1.68126            -0.95584
Ar             5.40676             4.63436            0.772394             7.31559            -5.95691             1.06632
Ar             4.63436             4.63436             1.54479             5.05326             2.89377            -1.72307
Ar             5.40676             5.40675             1.54479             7.92383            -7.03238            -4.24512
Ar             4.63436             5.40675             2.31718            0.978729            -4.69955             9.65697
Ar             5.40675             4.63436             2.31718            -7.77093             5.44267             8.47102
Ar             4.63436             4.63436             3.08957        -0.000610065            -2.33131             -3.2844
Ar             5.40676             5.40675             3.08957             5.47319            -2.11646             2.49336
Ar             4.63436             5.40675             3.86197              5.6325             2.83517            -8.08069
Ar             5.40676             4.63436             3.86197             6.64296             8.48781            -4.08277
Ar             4.63436             4.63436             4.63436            -7.73034            -9.02066             2.86172
Ar             5.40675             5.40675             4.63436            -9.97497            -2.40699            -9.74944
Ar             4.63436             5.40675             5.40675           -0.950041            -1.23417             3.01248
Ar             5.40675             4.63436             5.40675             1.90924            -1.15268            -4.73647
