256
Position of argon atoms in fcc cell after one integration
Ar             6.15012             6.17602              6.1526             -8.3101            -1.10507            -7.55643
Ar            0.748884             0.75073             6.15391            -6.63652            -6.11382            -7.22942
Ar           0.0322218            0.755305            0.746526             9.03051            -4.84162             -7.3363
Ar            0.738908           0.0172525            0.752208            -9.41111             4.80898            -5.71902
Ar           0.0250273           0.0043006             1.54258             7.03565             1.21522           -0.603986
Ar            0.773284            0.767679             1.53567            0.269691            -1.31858            -2.54451
Ar             6.15189            0.788927              2.3459            -7.78409             4.66376             8.07911
Ar            0.796019          0.00211588             2.33789             6.64268            0.600322             5.81928
Ar             6.15933             6.15799             3.07011            -5.69308             -5.9879              -5.475
Ar            0.779806            0.798191             3.06044             2.05503             7.27352            -8.18693
Ar           0.0245525            0.738356             3.89655             6.90505            -9.55568             9.72311
Ar            0.749893             6.15733             3.85945            -6.33289            -6.12688           -0.705514
Ar          0.00549345             6.17805             4.63518             1.56499            -0.35853            0.243249
Ar            0.745211             0.77603             4.65688            -7.63079            0.997295             6.34205
Ar          0.00528316            0.752652             5.41332             1.41877            -5.61341             1.83805
Ar            0.778504             6.14585             5.37713             1.73071            -9.44193            -8.34443
Ar             6.17348             1.51113          0.00681474            -1.62243            -9.44528             1.92915
Ar            0.759775             2.33277          0.00671912            -3.55012              4.3768             1.90862
Ar           0.0087249             2.29216             0.78221              2.4352            -7.03673             2.77145
Ar            0.797769             1.56323            0.755553             7.12818             5.17423            -4.73287
Ar           0.0286835             1.57327             1.56508             8.05442             8.00242             5.70845
Ar            0.783116             2.33968             1.56796             3.02715             6.33237             6.51512
Ar             6.16769             2.33091             2.34718            -3.32222             3.86125              8.4373
Ar            0.758378              1.5679             2.34151            -3.96253             6.50274             6.85573
Ar          0.00331384             1.50977             3.10201             0.85077            -9.81269             3.50393
Ar            0.786346             2.29029             3.05458             3.90892            -7.54805            -9.82518
Ar             6.16328              2.2836             3.88239             -4.6092            -9.44547             5.74967
Ar            0.790309              1.5145             3.85938             5.03858            -8.49146            -0.71834
Ar          0.00163936             1.53213             4.60842            0.386418            -3.54304            -7.27124
Ar            0.764202              2.2847             4.60859            -2.32914            -9.12057            -7.23085
Ar             6.14441             2.28631             5.43426            -9.81556            -8.68134             7.73552
Ar            0.762235              1.5275             5.43818            -2.85861            -4.84263             8.80742
Ar           0.0179931             3.09691             6.14816             5.02841             2.07891            -8.74347
Ar            0.800159             3.84818           0.0319398              7.8069             -3.8682             8.95704
Ar           0.0251244             3.88782            0.789033              7.0627             7.26551             4.68501
Ar            0.806631             3.07358            0.780129             9.63434            -4.49273             2.18525
Ar             6.16864             3.08335             1.51011             -2.9814            -1.75141            -9.74773
Ar            0.787572             3.84629             1.54549             4.26648            -4.41519            0.205974
Ar             6.15337             3.82834             2.35052            -7.31253             -9.4639             9.39189
Ar            0.752599             3.11196             2.31557            -5.62733             6.28867           -0.443218
Ar             6.17713             3.09305              3.0637           -0.586236            0.968828            -7.25196
Ar            0.777982             3.88246             3.06617              1.5412             5.76517            -6.57527
Ar             6.15944             3.88575             3.89692             -5.7305             6.69289              9.8343
Ar             0.78654             3.09672              3.8366             3.96807             2.00908            -7.12196
Ar            0.023274             3.09642             4.61602             6.48673             1.92882             -5.1369
Ar            0.766202             3.83957             4.61499            -1.77014            -6.27135            -5.43233
Ar           0.0262998             3.84676             5.43618             7.40523            -4.25854             8.25584
Ar            0.804336             3.07704             5.40215              9.0046            -3.53454            -1.29108
Ar              6.1624             4.61243           0.0238553            -4.74927            -6.15928             6.71904
Ar            0.752241             5.42578             6.15491             -5.6823             5.31038            -6.84035
Ar           0.0167329             5.37744            0.806027             4.69846            -8.25292             9.46054
Ar            0.760359             4.65321            0.786542             -3.3852             5.30045             3.97926
Ar           0.0116649             4.66406             1.55307             3.29943             8.34282             2.34957
Ar            0.758743             5.40981             1.53151            -3.80998            0.838686            -3.70833
Ar          0.00529991             5.43978             2.34147             1.39872             9.26015             6.81757
Ar             0.75661             4.66332             2.31999            -4.42098             8.14157            0.801171
Ar              6.1554              4.6073             3.07536            -6.68514            -7.59554            -3.99068
Ar            0.797734             5.38716             3.06019             7.13343            -5.50201            -8.24325
Ar             6.15146             5.43092             3.86143            -7.81681             6.78288           -0.150445
Ar            0.756278             4.61675              3.8911            -4.57196            -4.93472             8.18756
Ar           0.0163028             4.62843             4.62752             4.49617            -1.65299            -1.89907
Ar            0.772202             5.42418             4.66927          -0.0403411             4.85531             9.80473
Ar             6.17856             5.37437             5.41719           -0.197164            -9.11172             2.90934
Ar            0.763118             4.61753             5.38691            -2.62252             -4.7298            -5.56751
Ar             1.52624           0.0104698           0.0163938            -5.18518             2.91152             4.54131
Ar             2.33312             0.74966               6.166             4.47445            -6.38757            -3.80267
Ar             1.57089            0.762299            0.761542             7.34702            -2.83283            -3.06307
Ar             2.29371           0.0188819            0.773688            -6.57956             5.29668            0.348921
Ar             1.51605          0.00626254             1.51451            -8.06364             1.72286             -8.4952
Ar             2.33451            0.768462             1.51994             4.88661            -1.09897            -6.96855
Ar             1.51303            0.803283             2.30035            -8.89358              8.6876            -4.73864
Ar             2.31723          0.00472193             2.28776            0.016731             1.32365            -8.26624
Ar             1.53574             6.15784             3.11554            -2.52395            -6.03128             7.30161
Ar             2.32781            0.740098             3.12211             2.98258            -9.09089             9.15568
Ar             1.56551            0.755086             3.88464             5.83308             -4.8947             6.38187
Ar             2.33034           0.0280104              3.8825             3.70573             7.84959              5.7805
Ar             1.57567           0.0059956             4.66344             8.68683             1.65166             8.18378
Ar             2.33179            0.805664             4.64599             4.11385             9.36768             3.28728
Ar             1.54016            0.749072             5.41035            -1.28867            -6.56475            0.998442
Ar             2.34203           0.0216161             5.38047             6.98938             6.06555            -7.37722
Ar             1.56016             1.52395           0.0163166              4.3365            -5.84127             4.51987
Ar             2.32277             2.30007             6.15495             1.57707            -4.80717             -6.8308
Ar             1.54615             2.32768            0.756252            0.406542             2.94579            -4.54052
Ar             2.28957             1.54936            0.788708            -7.74196              1.2951             4.58783
Ar             1.57102             1.53407             1.55472             7.36573            -2.99446             2.79145
Ar             2.32589             2.30182              1.5156             2.46934            -4.30892            -8.18702
Ar             1.52088             2.34911             2.34781            -6.67901             8.97418             8.60601
Ar             2.34043             1.54428              2.3477             6.54798           -0.140419              8.5799
Ar             1.52345             1.57583             3.08583            -5.96733              8.7188            -1.04046
Ar             2.32042             2.31393             3.11295            0.912152           -0.906211             6.58218
Ar             1.56146             2.33181             3.85106             4.69745             4.12225            -3.05237
Ar             2.32992             1.51922             3.84731             3.59222            -7.17754            -4.11086
Ar             1.52491             1.55267             4.63643            -5.56609             2.21805            0.593417
Ar             2.30997             2.28318             4.64008            -2.01457            -9.55161             1.61941
Ar             1.52452             2.33723             5.42548            -5.67621             5.63061              5.2616
Ar             2.30056             1.52005             5.38179            -4.65459            -6.94749            -6.99699
Ar             1.56529             3.12225             6.15808             5.78166             9.19929            -6.00636
Ar             2.32705             3.85238          0.00329655             2.77786             -2.6853            0.894337
Ar             1.56921             3.89074            0.772666             6.87968              8.0961           0.0694935
Ar             2.30143             3.09921            0.778015            -4.41254             2.71444             1.56384
Ar             1.52381             3.12021             1.53555            -5.86011             8.60214            -2.57366
Ar             2.32627             3.83591             1.53455             2.57068            -7.31287             -2.8699
Ar             1.54249              3.8391             2.35065           -0.623501            -6.42716             9.40598
Ar             2.30994             3.06275             2.32168              -2.023             -7.5361             1.26665
Ar             1.55531             3.07527             3.10108             2.96508            -4.00032             3.24029
Ar             2.31935             3.86788             3.12462             0.62157             1.66515             9.86235
Ar             1.55784             3.84411             3.84841             3.67585            -5.00958            -3.79492
Ar             2.35103             3.05797             3.89281             9.52763            -8.86545             8.68168
Ar             1.57695             3.07786             4.61354             9.03411             -3.2782            -5.82777
Ar             2.32531             3.84374             4.62658             2.30144             -5.1089            -2.17596
Ar             1.55696             3.82797             5.38637             3.43204            -9.53458            -5.72826
Ar              2.2942             3.08137             5.43539            -6.41932             -2.3109             8.03472
Ar              1.5574              4.6098           0.0294951             3.55447            -6.87951             8.28631
Ar             2.32195              5.4069             6.15337             1.34575           0.0390352            -7.26928
Ar             1.54806             5.42157            0.795672            0.927677             4.15437             6.54333
Ar             2.31008              4.6146            0.796791            -1.97826            -5.53448             6.86797
Ar              1.5699             4.66816             1.53662             7.05376             9.49907            -2.26876
Ar             2.31477             5.43618             1.53612           -0.662944             8.23943            -2.41774
Ar             1.57534             5.40356             2.29147             8.58304           -0.898969            -7.21349
Ar             2.34286             4.66602             2.34785             7.24044             8.89316             8.63002
Ar             1.54028             4.64889              3.1232            -1.24721             4.09343             9.44792
Ar             2.34756             5.40107             3.12121             8.55467            -1.60023             8.89808
Ar             1.54421             5.42014             3.84524            -0.15103             3.75124            -4.67442
Ar             2.34951             4.64284             3.87825             9.10371             2.38224             4.59184
Ar             1.53427             4.62039             4.61871            -2.93944            -3.91838            -4.38606
Ar             2.32476             5.37543             4.62459             2.14697            -8.79547            -2.72716
Ar             1.53241             5.42285              5.4192             -3.4566             4.51103             3.49155
Ar             2.28166             4.61155              5.3851            -9.96014            -6.40967             -6.0785
Ar             3.10906             6.17313             6.15482             5.48614            -1.76309            -6.93625
Ar             3.83845            0.802539          0.00544903            -6.60615             8.45146             1.52321
Ar             3.08367            0.780653            0.753598             -1.6458             2.30276            -5.31665
Ar             3.85321           0.0216774            0.790267            -2.46005             6.07243             5.01726
Ar              3.0669            0.034753             1.52082            -6.34818             9.73237            -6.71082
Ar             3.86442            0.774123             1.53389            0.692616            0.502561            -3.05741
Ar              3.1046            0.788826             2.29897             4.23143              4.6182            -5.10663
Ar             3.84839           0.0206342             2.30197            -3.80313             5.79149            -4.26368
Ar             3.07298             6.16546             3.06512            -4.65326            -3.83353            -6.87344
Ar             3.88548            0.788801             3.07888             6.62221             4.61371            -3.00237
Ar               3.102            0.768503             3.89125             3.51478             -1.0879             8.23252
Ar             3.85901             6.16391             3.84167           -0.826995            -4.34731            -5.70936
Ar             3.06983             6.17693             4.64868            -5.53827            -0.67704              4.0306
Ar             3.83864            0.773283             4.63466            -6.54873            0.226477            0.110176
Ar             3.11737            0.802433             5.39079             7.81562             8.41822            -4.47416
Ar             3.89233           0.0233374             5.37979             8.54914             6.52242            -7.57989
Ar             3.06486             1.55534             6.16421            -6.92796             2.97584            -4.19553
Ar             3.85199             2.29919             6.16542            -2.80209            -5.04709            -3.95201
Ar             3.11429             2.28995             0.79254             6.95732            -7.65434             5.62793
Ar             3.87307             1.52842            0.803739             3.13894            -4.59124             8.80363
Ar             3.06979             1.56433             1.52661            -5.54615             5.48138            -5.08241
Ar             3.87405             2.33853             1.56029             3.40112              6.0076             4.37165
Ar             3.08632             2.31397             2.30739           -0.897464           -0.909754            -2.73943
Ar             3.84837             1.57962             2.32486            -3.81727             9.78362             2.17084
Ar             3.11173             1.58012             3.06137             6.23175             9.93321             -7.8936
Ar             3.86557             2.31058             3.12413             1.01263            -1.84465             9.73023
Ar             3.11932             2.31354              3.8375             8.36713            -1.01999            -6.85094
Ar             3.87294             1.53851             3.87365             3.09572            -1.75304             3.29334
Ar             3.07937             1.56594             4.62124            -2.85054             5.95489            -3.67333
Ar               3.887             2.31716             4.60326             7.05898         -0.00136247              -8.745
Ar             3.07303              2.3521             5.39568            -4.63454             9.82017            -3.11028
Ar             3.89664             1.51977             5.37652             9.76759            -7.02476            -8.51179
Ar             3.07262             3.06611             6.15807              -4.748            -6.57196            -5.95816
Ar             3.83437             3.88327             6.15698             -7.7698             5.99365            -6.27692
Ar             3.06502             3.83414            0.738635            -6.87781            -7.81831            -9.52861
Ar               3.843              3.0574             0.74497            -5.32269            -9.03172            -7.76434
Ar             3.11105             3.10113             1.52812             6.03284             3.24865            -4.65971
Ar             3.88141             3.89599             1.51604             5.47104             9.57564            -8.08792
Ar              3.0701              3.8725             2.31804            -5.45534             2.95172            0.251055
Ar             3.83403             3.11117             2.33497            -7.84048             6.06914             5.01209
Ar             3.09767             3.12246              3.1041             2.28261              9.2413             4.08987
Ar             3.85872             3.88174             3.07792           -0.897885             5.56969            -3.26756
Ar             3.05796              3.8964             3.83661            -8.85251             9.67229            -7.10763
Ar             3.85322             3.06425             3.87834            -2.44646            -7.09379             4.60452
Ar             3.08016             3.11722             4.60807            -2.62991             7.75942            -7.36393
Ar             3.86228             3.87237             4.59886            0.105873             2.94361            -9.97655
Ar             3.09908             3.88402             5.42834             2.67076             6.20832             6.05044
Ar              3.8463             3.09817             5.41767            -4.38075             2.41035             3.05639
Ar             3.09233              4.6449              6.1686            0.781356             2.97899            -3.02587
Ar             3.86778             5.40802          0.00829327              1.6361            0.350876               2.287
Ar             3.06091             5.39965            0.758995            -8.04273            -1.99741            -3.83469
Ar             3.84996             4.60256            0.795073            -3.37327            -8.91721             6.33027
Ar             3.09932             4.66674             1.52868              2.7442             9.10083            -4.49847
Ar             3.83317             5.39895             1.56993            -8.08549            -2.19328             7.07825
Ar             3.08335             5.41601              2.3108            -1.74465              2.5928            -1.78502
Ar             3.87659             4.66036             2.30562             4.12259             7.30012            -3.23374
Ar              3.0678              4.6621               3.056            -6.09081             7.78833            -9.41258
Ar             3.88781             5.41601             3.10304             7.27545             2.56203             3.78129
Ar             3.09787             5.42065             3.87253             2.34303             3.89175             2.97394
Ar             3.85144             4.63677              3.8554            -2.94159            0.681376            -1.83986
Ar             3.06101             4.60741             4.66204            -8.00175            -7.55385             7.78131
Ar             3.83971              5.3992             4.63335            -6.24653            -2.12764           -0.265252
Ar             3.07385             5.41839             5.38505            -4.41293             3.26046            -6.08909
Ar             3.84301             4.62795             5.41632            -5.30133            -1.78919             2.67924
Ar             4.61432             6.15825             6.15767            -5.61687            -5.93489             -6.1052
Ar             5.42721            0.758059              6.1577             5.73107             -4.0916            -6.09829
Ar             4.65841            0.806227            0.790805             6.78335             9.52302             5.17886
Ar             5.39593           0.0320757            0.757025            -3.04003             8.95894            -4.39006
Ar             4.66263             6.15343             1.51169             7.95064            -7.24218             -9.2965
Ar               5.386            0.790511             1.53152            -5.83286             5.09165            -3.70799
Ar             4.65041            0.740305             2.35146             4.52285            -9.01653             9.63772
Ar             5.38189             6.15283             2.33088            -6.99388            -7.44535             3.85372
Ar             4.62785            0.033296             3.10648             -1.8082             9.27348             4.76416
Ar             5.40189            0.741489             3.10952            -1.37594            -8.72377             5.62018
Ar             4.64368            0.771624             3.82741              2.6201           -0.216104            -9.69029
Ar             5.42253             6.16138             3.86497             4.40796            -5.00563            0.847763
Ar             4.63912           0.0335218             4.66956             1.36174             9.42763              9.8939
Ar             5.43795            0.762682             4.63556             8.76414            -2.74506            0.345824
Ar             4.63536            0.784628             5.42708            0.294362             3.41658              5.6831
Ar             5.38593          0.00794103             5.39086            -5.83941              2.1622            -4.46507
Ar             4.62481             1.54068           0.0322942            -2.66352             -1.1316             9.01214
Ar             5.41128             2.32794             6.14595             1.24929             3.02825            -9.34409
Ar             4.64509             2.28658            0.785984             3.02873            -8.59571               3.816
Ar             5.40843             1.53351            0.760509            0.480181             -3.1618            -3.35297
Ar             4.65187             1.51403             1.53441             4.91653            -8.61135            -2.88988
Ar             5.42525             2.32874             1.57717             5.17381             3.25074             9.11289
Ar             4.64538             2.34374             2.29043             3.10682             7.47596             -7.5103
Ar               5.428             1.52708             2.28588             5.95914            -4.96114            -8.77981
Ar             4.66256             1.56097             3.09276             7.93206             4.55536            0.895422
Ar             5.42061             2.32208             3.11184             3.87805             1.37884             6.25732
Ar             4.61905             2.32891             3.88998            -4.26276             3.29328              7.8703
Ar             5.40145             1.57482             3.89658             -1.4944             8.43166             9.72971
Ar             4.60697             1.57544             4.65221             -7.6645             8.60206             5.01302
Ar              5.3989             2.33702             4.64689            -2.22182              5.5959             3.53389
Ar             4.64177             2.33359             5.41041             2.08882             4.62649             1.02613
Ar             5.43773             1.55475             5.40651             8.68858              2.7767          -0.0716348
Ar             4.64005             3.11128             6.16593             1.61156             6.11151             -3.7665
Ar             5.43527             3.83405          0.00813202              8.0061            -7.84544             2.26526
Ar             4.64993              3.8805            0.795658             4.39536             5.20389             6.53835
Ar             5.40363             3.06183            0.798856            -0.88474            -7.78713              7.4046
Ar             4.62816             3.08895             1.55358            -1.73103           -0.163491             2.47785
Ar             5.39391             3.89491             1.54046            -3.61424             9.26945            -1.21439
Ar             4.65322              3.8908             2.33408             5.31685             8.10727             4.76191
Ar             5.39136             3.06216             2.30253             -4.3263            -7.68033            -4.10475
Ar             4.63062             3.12127             3.09972            -1.03833             8.90268             2.85519
Ar             5.39429             3.87859             3.07113            -3.51279              4.6797            -5.17237
Ar             4.61181             3.87968             3.88578            -6.31423             4.97839             6.68944
Ar             5.39914             3.05711             3.88958            -2.14491            -9.09882             7.76022
Ar             4.66674              3.0912             4.64997             9.09602            0.483374             4.40702
Ar             5.41157             3.85862             4.65173             1.34251           -0.929755             4.89997
Ar             4.65905             3.83059              5.3878             6.93678            -8.80041            -5.32126
Ar             5.38976             3.06174              5.4227            -4.75332            -7.80149             4.47435
Ar             4.62709             4.66011             6.17317            -2.03467             7.24687            -1.73559
Ar              5.3958             5.43053          0.00360551            -3.08748             6.67034            0.882532
Ar             4.66822              5.4127             0.76885             9.50984             1.65546            -1.03878
Ar             5.43279             4.61319            0.776179              7.3095            -5.93249             1.06719
Ar             4.65238             4.64472             1.53871             5.07015             2.93192            -1.68898
Ar             5.43499             5.38171             1.52969             7.94112            -7.03493            -4.23377
Ar             4.63789             5.38999             2.35159             1.00984             -4.7245             9.66796
Ar             5.37909             4.65377             2.34736            -7.76872             5.46396               8.485
Ar             4.63439              4.6261             3.07794           0.0103701            -2.30837            -3.24517
Ar             5.42619             5.39919             3.09848             5.44057            -2.13663             2.51491
Ar             4.65445             5.41682             3.83324             5.65501             2.81768             -8.0497
Ar             5.43037             4.66458             3.84749             6.62008             8.48576            -4.04678
Ar             4.60689              4.6023             4.64458             -7.7003            -8.98051             2.87612
Ar             5.37124             5.39818             4.59972            -9.97596            -2.40961            -9.70077
Ar               4.631             5.40236             5.41747           -0.941488            -1.23479             2.99899
Ar             5.41357             4.63024             5.38991             1.91538            -1.16025            -4.72515
