256
Position of argon atoms in fcc cell after one integration
Ar             6.16476             6.17776             6.16596            -8.15164           -0.867883            -7.45397
Ar            0.760664            0.761586             6.16665            -6.60144            -6.08372            -7.08491
Ar           0.0161295            0.763881            0.759513             9.05066            -4.79747            -7.26066
Ar            0.755658          0.00865597            0.762341            -9.40669             4.84769            -5.66816
Ar           0.0125082          0.00214439             1.54367             7.03012             1.20772           -0.619324
Ar            0.772823             0.77003             1.54022            0.249324            -1.32374            -2.56019
Ar             6.16562            0.780646             2.33153             -7.6534             4.64229             8.06537
Ar            0.784204          0.00105422             2.32753             6.63395            0.593394              5.8162
Ar             6.16933             6.16861             3.07984            -5.56241            -5.94333             -5.4667
Ar            0.776126            0.785275             3.07501             2.08097             7.24212            -8.18312
Ar           0.0122737            0.755373             3.87925             6.89364            -9.56276             9.71329
Ar            0.761155             6.16825              3.8607            -6.32009            -6.13509           -0.707461
Ar          0.00272819             6.17864             4.63476             1.54252            -0.30567            0.229172
Ar            0.758797            0.774234             4.64561            -7.63459             1.02048             6.32336
Ar          0.00268998            0.762575             5.41004               1.489            -5.54082             1.84497
Ar            0.775441             6.16257             5.39196             1.71376             -9.3482            -8.32226
Ar             6.17635             1.52795          0.00339436             -1.5937            -9.45396             1.91403
Ar            0.766092             2.32498          0.00334171            -3.54572             4.37941             1.88673
Ar          0.00437714             2.30468             0.77729             2.45026            -7.02578             2.75693
Ar            0.785083             1.55401            0.763977             7.12665             5.18015            -4.73155
Ar           0.0143475             1.55903             1.55493              8.0549             8.00234             5.70099
Ar            0.777741             2.32842             1.55637             3.01185             6.31995             6.50984
Ar             6.17351             2.32404             2.33217             -3.2151             3.85507             8.42481
Ar             0.76541             1.55633             2.32933            -3.93744             6.48979             6.83231
Ar          0.00171689             1.52726             3.09578            0.936361            -9.83625             3.49099
Ar            0.779379             2.30373             3.07207             3.91908            -7.55372            -9.82981
Ar             6.17134              2.3004             3.87217            -4.45133            -9.42935             5.73636
Ar            0.781349             1.52963             3.86066             5.03062            -8.50678           -0.727968
Ar         0.000872433             1.53845             4.62138            0.467176            -3.55607            -7.28642
Ar            0.768319             2.30094             4.62147            -2.29871            -9.12294            -7.23916
Ar             6.16183             2.30175              5.4205            -9.75852            -8.66962              7.7231
Ar            0.767319             1.53613             5.42249            -2.85331            -4.85721             8.82829
Ar          0.00901765             3.09323             6.16369             5.05513              2.0603            -8.70815
Ar            0.786271             3.85507           0.0159829             7.79857            -3.87238             8.97158
Ar           0.0125579             3.87489            0.780708             7.05687             7.25988             4.67136
Ar            0.789498             3.08158            0.776256             9.61645            -4.49136             2.16986
Ar             6.17392             3.08646             1.52745              -2.954            -1.74648             -9.7407
Ar            0.779984             3.85413             1.54513             4.26174            -4.40194             0.19699
Ar             6.16632             3.84517             2.33383            -7.24136            -9.44248             9.36216
Ar            0.762552             3.10077             2.31637            -5.55775             6.28968           -0.452652
Ar             6.17816             3.09131             3.07663           -0.568996            0.977753            -7.26942
Ar            0.775214             3.87221             3.07787              1.5694             5.75573            -6.57426
Ar             6.16944             3.87385             3.87943            -5.52268             6.68002             9.81546
Ar            0.779481             3.09315             3.84928               3.968             2.00814            -7.12563
Ar           0.0116837             3.09299             4.62518              6.5362             1.92444            -5.15174
Ar            0.769321             3.85076             4.62467            -1.73695            -6.29176            -5.44156
Ar           0.0131348             3.85435             5.42147             7.38691            -4.27311             8.26601
Ar            0.788343             3.08331             5.40445             8.96821            -3.52051            -1.29366
Ar             6.17081              4.6234           0.0119127             -4.7028            -6.15828             6.70005
Ar            0.762335              5.4163             6.16707             -5.6597             5.34497            -6.81505
Ar          0.00837665             5.39211            0.789209             4.69499            -8.23341             9.44175
Ar            0.766382             4.64378            0.779467             -3.3807             5.29536             3.97184
Ar            0.005818             4.64921             1.54891             3.27285             8.34403             2.32352
Ar             0.76555              5.4083             1.53813            -3.83572            0.857866            -3.73011
Ar          0.00270765             5.42328             2.32933             1.49937             9.27756             6.82433
Ar            0.764493             4.64884             2.31858            -4.43539             8.13407            0.788112
Ar             6.16729             4.62082             3.08246            -6.67223            -7.60184            -3.99288
Ar            0.785059             5.39695             3.07487             7.11262            -5.50595            -8.25626
Ar             6.16534             5.41884             3.86169            -7.78117             6.78791           -0.151424
Ar            0.764376             4.62554             3.87653            -4.52714            -4.94869             8.18212
Ar          0.00821325             4.63138             4.63093             4.58521            -1.66726            -1.92305
Ar            0.772289              5.4155             4.65182          -0.0559275             4.89546             9.80755
Ar             6.17888             5.39058               5.412           -0.164117            -9.09912             2.93153
Ar            0.767768             4.62595             5.39683            -2.60392            -4.72843            -5.57661
Ar              1.5355          0.00526312          0.00825234            -5.20903             2.93972             4.60547
Ar             2.32515            0.761027             6.17267             4.47694            -6.38467            -3.69154
Ar             1.55782            0.767344            0.766985             7.33019            -2.83515            -3.05061
Ar             2.30544           0.0094459            0.773053            -6.59333             5.30442             0.36417
Ar             1.53041          0.00316031             1.52964            -8.07238             1.76086            -8.50551
Ar             2.32583            0.770422             1.53235             4.86671            -1.10385            -6.98016
Ar             1.52889             0.78783             2.30877            -8.92043             8.67582             -4.7265
Ar              2.3172          0.00236312             2.30247           0.0130555             1.32646            -8.26418
Ar             1.54025             6.16853             3.10255            -2.54246            -5.98725             7.29285
Ar             2.32249            0.756261             3.10583             2.98558             -9.0703             9.13663
Ar             1.55514            0.763771             3.87329              5.8214             -4.8625             6.36763
Ar             2.32375           0.0140211             3.87222             3.69595             7.86788             5.76567
Ar             1.56022          0.00302968             4.64889             8.67518             1.68196             8.16824
Ar             2.32448            0.789012             4.64016             4.10202             9.34387             3.26653
Ar             1.54247            0.760745             5.40857            -1.29934            -6.55121             1.00882
Ar              2.3296           0.0108124             5.39361             6.97798             6.07239            -7.38252
Ar             1.55246             1.53436           0.0082198             4.31926            -5.85372             4.58015
Ar             2.31997             2.30863             6.16709             1.56799            -4.80491            -6.80215
Ar             1.54545             2.32243             0.76433            0.382249             2.94836            -4.53432
Ar             2.30337             1.54707            0.780555            -7.75502             1.28467             4.57783
Ar             1.55791             1.53942             1.54975             7.37116             -3.0106             2.79084
Ar             2.32152             2.30949             1.53018             2.44592            -4.31467            -8.19733
Ar             1.53281             2.33314             2.33249            -6.71724             8.96778             8.60469
Ar             2.32879             1.54453             2.33243             6.53117           -0.143756             8.57183
Ar              1.5341             1.56031             3.08769            -5.99667             8.72137             -1.0535
Ar              2.3188             2.31555             3.10125            0.910762           -0.914078             6.56601
Ar             1.55311             2.32449             3.85651             4.68488             4.10866            -3.06314
Ar             2.32354               1.532             3.85463             3.57879            -7.18276            -4.11815
Ar             1.53483             1.54873             4.63539            -5.58596             2.21623            0.582044
Ar             2.31356             2.30018             4.63721            -2.02681            -9.55013             1.60588
Ar             1.53464              2.3272             5.41612            -5.69338             5.63096             5.26077
Ar             2.30886             1.53242             5.39426            -4.66887            -6.95049            -7.01359
Ar             1.55503              3.1059             6.16868             5.75775              9.1782            -5.91232
Ar             2.32211             3.85717           0.0016699               2.771            -2.69304            0.929357
Ar             1.55698             3.87635            0.772537             6.85802             8.08122           0.0759426
Ar             2.30929             3.09438            0.775221            -4.42487             2.70439             1.57675
Ar             1.53427             3.10489             1.54015             -5.8944             8.60567            -2.59635
Ar             2.32171             3.84893             1.53966              2.5529            -7.31878            -2.87492
Ar             1.54362             3.85054             2.33391           -0.646349            -6.42199             9.40241
Ar             2.31355             3.07616             2.31943            -2.03354            -7.53547             1.26431
Ar             1.55004             3.08241             3.09532             2.95703            -4.02021             3.23324
Ar             2.31825             3.86492             3.10708            0.608366             1.66167             9.84172
Ar              1.5513             3.85303             3.85518             3.66735            -5.01696            -3.80968
Ar             2.33409             3.07377             3.87738             9.50713            -8.87728             8.66236
Ar             1.56087             3.08371             4.62394             9.03602            -3.29117            -5.84901
Ar             2.32123             3.85284             4.63046             2.28243            -5.12099            -2.18511
Ar             1.55086             3.84496             5.39657             3.41746             -9.5489             -5.7266
Ar             2.30567             3.08548             5.42107            -6.45602            -2.30362             8.04335
Ar             1.55108             4.62207           0.0147561             3.54347            -6.89883             8.27844
Ar             2.31956             5.40683             6.16629             1.33881           0.0416115            -7.24282
Ar             1.54641             5.41417            0.784037            0.918067             4.16148             6.53411
Ar             2.31362             4.62447            0.784584            -1.99425            -5.55203             6.85001
Ar             1.55734             4.65126             1.54069             7.05569             9.49456            -2.29533
Ar             2.31596             5.42149             1.54044           -0.677087             8.26468             -2.4349
Ar             1.56006             5.40516             2.30432             8.58172           -0.899281            -7.22274
Ar                2.33             4.65019              2.3325             7.21007             8.89382             8.61304
Ar             1.54252             4.64162             3.10638            -1.26631              4.0821             9.44512
Ar             2.33235             5.40392             3.10538             8.53154            -1.59591             8.88447
Ar             1.54449             5.41346             3.85359           -0.160888             3.76105            -4.69897
Ar             2.33333              4.6386              3.8701             9.08112             2.38186             4.57304
Ar             1.53952             4.62737             4.62653            -2.95346            -3.92541            -4.39587
Ar             2.32096             5.39109             4.62946             2.12841            -8.79801            -2.74442
Ar             1.53858             5.41481             5.41298            -3.47805              4.5221             3.49582
Ar              2.2994             4.62296             5.39592            -9.97834            -6.40745            -6.08287
Ar             3.09931             6.17621             6.16707             5.47454            -1.69409            -6.83548
Ar             3.85021            0.787481          0.00273124            -6.60544             8.46744             1.53058
Ar             3.08661             0.77654            0.763028            -1.65926             2.31953            -5.27895
Ar             3.85759           0.0108556            0.781336            -2.45806             6.08781              5.0191
Ar             3.07822           0.0173992             1.53279            -6.37084             9.76357            -6.73126
Ar             3.86319            0.773245             1.53933            0.688391            0.485127             -3.0604
Ar             3.09707            0.780607             2.30807             4.21959             4.61637            -5.11543
Ar             3.85517           0.0103204             2.30957            -3.81374             5.79623            -4.27196
Ar             3.08127              6.1723             3.07735            -4.66019            -3.84872             -6.8693
Ar             3.87371            0.780595             3.08423             6.60367             4.60703            -3.00308
Ar             3.09577            0.770448              3.8766             3.48965             -1.0948             8.22315
Ar             3.86048             6.17159             3.85182           -0.831227            -4.28043            -5.69867
Ar             3.07969             6.17809             4.64151            -5.54721           -0.623047             4.02214
Ar              3.8503            0.772862             4.63449            -6.55139            0.248352           0.0818379
Ar             3.10346            0.787435             5.39877             7.80717              8.4357             -4.4849
Ar             3.87714           0.0117005             5.39328             8.52793             6.55378            -7.57376
Ar              3.0772             1.55005             6.17168            -6.94251             2.96502            -4.20034
Ar             3.85698             2.30818             6.17237            -2.80146            -5.05432            -3.85742
Ar             3.10192             2.30357              0.7825             6.94227            -7.64949             5.65592
Ar             3.86751              1.5366            0.788074             3.11906            -4.59792             8.80088
Ar             3.07967             1.55456             1.53568            -5.55856             5.49036            -5.10804
Ar               3.868             2.32785             1.55252             3.39238             5.99651              4.3528
Ar             3.08793             2.31558             2.31228           -0.913805           -0.900694            -2.75056
Ar             3.85517              1.5622             2.32101            -3.81724             9.78485             2.15721
Ar             3.10065             1.56245             3.07545             6.22367              9.9266            -7.92465
Ar             3.86377             2.31387             3.10683              1.0121            -1.85391              9.7031
Ar             3.10444             2.31536             3.84972              8.3568            -1.02251            -6.87491
Ar             3.86744             1.54164              3.8678             3.08087              -1.764             3.28006
Ar             3.08446             1.55535             4.62779            -2.86568              5.9429            -3.68442
Ar             3.87446             2.31717             4.61881             7.02806          -0.0054139            -8.73457
Ar             3.08129             2.33463             5.40122            -4.64795             9.80752            -3.11211
Ar             3.87928             1.53228             5.39165             9.73637            -7.02764            -8.49301
Ar             3.08109             3.07782             6.16864            -4.76279            -6.59297             -5.9197
Ar             3.84818             3.87261             6.16811            -7.75024             5.98306            -6.22829
Ar             3.07728             3.84805            0.755553            -6.89846            -7.81674            -9.48074
Ar             3.85248             3.07348            0.758735            -5.32726            -9.03844            -7.70208
Ar             3.10031             3.09535             1.53644             6.03218             3.24783            -4.68106
Ar             3.87168             3.87896             1.53042             5.46008             9.55428            -8.06958
Ar             3.07982             3.86724              2.3176            -5.47138             2.95891            0.241789
Ar             3.84799             3.10037             2.32607            -7.84584             6.06619              4.9972
Ar             3.09362             3.10601             3.09683             2.27493             9.23728             4.07959
Ar             3.86033             3.87184             3.08374            -0.91218             5.55405            -3.27319
Ar             3.07375             3.87918             3.84928            -8.88228             9.67113            -7.12389
Ar             3.85758              3.0769             3.87015            -2.45755             -7.1147             4.59987
Ar             3.08485              3.1034              4.6212            -2.64671             7.76588            -7.38616
Ar             3.86211             3.86716             4.61661           0.0862441             2.92127            -9.96825
Ar             3.09432             3.87298             5.41755             2.67054             6.19347             6.06451
Ar             3.85412             3.09387             5.41222            -4.40055             2.41366               3.066
Ar             3.09094             4.63962             6.17393            0.774199             2.96024            -2.96281
Ar             3.86487             5.40739          0.00418065             1.63218             0.35422             2.33162
Ar             3.07524             5.40321            0.765754             -8.0506            -1.99458            -3.76168
Ar             3.85596             4.61845            0.783767            -3.37235            -8.93325             6.37131
Ar             3.09444             4.65054             1.53672             2.73735             9.09364            -4.52454
Ar             3.84757             5.40285             1.55735            -8.08761            -2.19337             7.06077
Ar             3.08645             5.41139             2.31398             -1.7492             2.59857            -1.79346
Ar             3.86926             4.64736             2.31139             4.10555             7.30213             -3.2472
Ar             3.07867             4.64823             3.07277            -6.11858             7.79274            -9.43262
Ar             3.87487             5.41141             3.09631              7.2579             2.60119             3.78416
Ar             3.09371             5.41371             3.86724             2.33008             3.90336             2.96718
Ar             3.85669             4.63556             3.85868            -2.95581            0.676441            -1.84353
Ar             3.07528             4.62087              4.6482            -8.02468            -7.57238             7.77668
Ar             3.85083             5.40299             4.63384            -6.25013            -2.12412           -0.283809
Ar             3.08171             5.41258              5.3959             -4.4167             3.26935            -6.09686
Ar             3.85247             4.63115             5.41154            -5.32565            -1.80246             2.68878
Ar             4.62433             6.16876             6.16848            -5.62821            -5.87494            -6.03184
Ar             5.41699            0.765276             6.16849             5.74508            -4.02265            -6.02556
Ar             4.64636              0.7893            0.781602             6.75188             9.49942             5.16629
Ar             5.40134           0.0160832             0.76477            -3.04193             9.00966            -4.31474
Ar             4.64849             6.16631             1.52824             7.94111            -7.22442            -9.29511
Ar             5.39638            0.781454             1.53814            -5.82983             5.08729            -3.72897
Ar             4.64237            0.756353             2.33431             4.50703            -9.01446             9.62841
Ar             5.39433             6.16604             2.32402            -6.98249            -7.39091             3.84699
Ar             4.63109           0.0167112             3.09801            -1.82993             9.35644             4.74576
Ar             5.40433            0.756977             3.09953            -1.36739            -8.67918             5.60122
Ar             4.63902            0.772013             3.84467             2.61894           -0.218249            -9.70891
Ar             5.41466             6.17028             3.86346             4.43088            -4.99369            0.842247
Ar             4.63672           0.0167629             4.65196             1.33493             9.40837             9.88825
Ar             5.42235            0.767552             4.63496             8.76094             -2.7275            0.338251
Ar             4.63485            0.778527             5.41694            0.279969             3.43738              5.7087
Ar             5.39634          0.00403062             5.39881            -5.85046             2.23068            -4.46618
Ar             4.62957             1.54272           0.0162028            -2.68236            -1.15443             9.06918
Ar             5.40904             2.32256             6.16257             1.27383             3.02158             -9.3303
Ar             4.63971             2.30188            0.779197             3.01277             -8.5966              3.8137
Ar             5.40759             1.53914            0.766468            0.470949            -3.16825            -3.34051
Ar             4.64311             1.52939             1.53958             4.91908            -8.64001            -2.91706
Ar             5.41602             2.32296             1.56097             5.19547             3.24708             9.09672
Ar             4.63986             2.33045              2.3038             3.09407             7.45861            -7.51416
Ar             5.41739             1.53592             2.30152             5.96919            -4.97486            -8.79315
Ar             4.64845             1.55287             3.09116             7.92158             4.54487            0.895216
Ar             5.41369             2.31963              3.1007             3.89097             1.37742              6.2533
Ar             4.62668             2.32305             3.87597            -4.30285             3.29531             7.86768
Ar             5.40411              1.5598             3.87927             -1.4878             8.43698             9.72106
Ar             4.62064             1.56012             4.64328            -7.69695             8.61259             5.01347
Ar             5.40284             2.32708             4.64062            -2.20586             5.57116             3.51973
Ar             4.63806             2.32537             5.40858             2.08007             4.60852             1.02619
Ar             5.42225             1.54978             5.40664             8.70159             2.79923          -0.0667515
Ar             4.63719             3.10041             6.17259             1.59798             6.09648            -3.71334
Ar             5.42102             3.84801          0.00407912             8.00966            -7.84154             2.28629
Ar             4.64213             3.87123             0.78403             4.37358             5.20449             6.53076
Ar              5.4052              3.0757            0.785652           -0.875464            -7.79194             7.43179
Ar             4.63125             3.08925             1.54917            -1.74106           -0.175499             2.47027
Ar             5.40034             3.87843             1.54262             -3.6089               9.253            -1.21527
Ar             4.64377             3.87638             2.32562             5.29547             8.09889             4.74483
Ar             5.39906             3.07586             2.30984            -4.32607            -7.70197            -4.11673
Ar             4.63248             3.10542             3.09464            -1.05102             8.90296             2.84878
Ar             5.40054             3.87027             3.08035            -3.50015             4.66806            -5.18091
Ar             4.62307             3.87082             3.87387            -6.33445             4.97414              6.6884
Ar             5.40295             3.07333             3.87577            -2.13971            -9.12112             7.75763
Ar             4.65055             3.09037             4.64215             9.09614             0.45579             4.38129
Ar             5.40917             3.86029             4.64303              1.3539           -0.939322             4.87709
Ar              4.6467             3.84627             5.39728             6.93455            -8.81556            -5.32432
Ar             5.39824             3.07565             5.41473            -4.77692            -7.82045             4.47958
Ar             4.63072             4.64722             6.17621            -2.04286              7.2316            -1.67866
Ar             5.40128             5.41865          0.00190765            -3.07778             6.68017              1.0186
Ar             4.65129             5.40974            0.770658             9.51232             1.67106           -0.994547
Ar             5.41978             4.62376            0.774286             7.31472            -5.94895             1.06172
Ar             4.64336             4.63952             1.54173              5.0625             2.90883            -1.70708
Ar             5.42087             5.39423             1.53723             7.93033            -7.03537            -4.23984
Ar             4.63611             5.39838             2.33438            0.989634            -4.70899             9.66478
Ar             5.39292             4.64406             2.33226             -7.7712             5.45205             8.47689
Ar             4.63437             4.63022             3.08374          0.00823929             -2.3208            -3.27124
Ar             5.41649             5.40298             3.09402             5.46159            -2.12354             2.50111
Ar              4.6444             5.41179             3.84759             5.64347             2.82726            -8.06933
Ar             5.41857             4.64947             3.85471              6.6353             8.49006            -4.06883
Ar             4.62061             4.61832             4.63946            -7.71802            -9.00604             2.87039
Ar               5.389             5.40247             4.61702            -9.97739            -2.40853            -9.73121
Ar             4.63267             5.40456             5.41212           -0.945071            -1.23377             3.00987
Ar             5.41016             4.63231             5.39833             1.91429             -1.1569            -4.73163
